pcf
* control data
restart estimation
3 51559 2 0 1 
1 1 single point 
10 -3  0.3 0.02 9  
10 10 0.001
0.1 noaui
50 0.005 7 4 0.005 4  
0 0 0 
* singular value decomposition
2
3 5e-7
0
* parameter groups
cd relative 0.05000000 0.00001 switch 1.5 parabolic
fac relative 0.02000000 0.001 switch 1.5 parabolic
* parameter data
cd log factor 0.001399997 .000979997 .001819996 cd 1 0 
sw none factor 1 0.96000 1.04000 fac 1 0
at none factor 1 0.96000 1.04000 fac 1 0
* observation groups
wtemp
* observation data
wtemp_1 4 1.0000 wtemp
wtemp_2 3.5 1.0000 wtemp
wtemp_3 3.5 1.0000 wtemp
wtemp_4 7 1.0000 wtemp
wtemp_5 8 1.0000 wtemp
wtemp_6 8 1.0000 wtemp
wtemp_7 8 1.0000 wtemp
wtemp_8 8 1.0000 wtemp
wtemp_9 8 1.0000 wtemp
wtemp_10 7.5 1.0000 wtemp
wtemp_11 7.5 1.0000 wtemp
wtemp_12 7.5 1.0000 wtemp
wtemp_13 7.5 1.0000 wtemp
wtemp_14 7 1.0000 wtemp
wtemp_15 7 1.0000 wtemp
wtemp_16 6.5 1.0000 wtemp
wtemp_17 8 1.0000 wtemp
wtemp_18 7.7 1.0000 wtemp
wtemp_19 7.5 1.0000 wtemp
wtemp_20 7.3 1.0000 wtemp
wtemp_21 7.2 1.0000 wtemp
wtemp_22 7.2 1.0000 wtemp
wtemp_23 11.5 1.0000 wtemp
wtemp_24 11 1.0000 wtemp
wtemp_25 11 1.0000 wtemp
wtemp_26 10.2 1.0000 wtemp
wtemp_27 10 1.0000 wtemp
wtemp_28 10 1.0000 wtemp
wtemp_29 9 1.0000 wtemp
wtemp_30 8.5 1.0000 wtemp
wtemp_31 8.5 1.0000 wtemp
wtemp_32 8.5 1.0000 wtemp
wtemp_33 8.2 1.0000 wtemp
wtemp_34 8.2 1.0000 wtemp
wtemp_35 7 1.0000 wtemp
wtemp_36 12 1.0000 wtemp
wtemp_37 11 1.0000 wtemp
wtemp_38 10.5 1.0000 wtemp
wtemp_39 10 1.0000 wtemp
wtemp_40 10 1.0000 wtemp
wtemp_41 10 1.0000 wtemp
wtemp_42 9.5 1.0000 wtemp
wtemp_43 9.5 1.0000 wtemp
wtemp_44 9.5 1.0000 wtemp
wtemp_45 9.5 1.0000 wtemp
wtemp_46 9.5 1.0000 wtemp
wtemp_47 9 1.0000 wtemp
wtemp_48 8.5 1.0000 wtemp
wtemp_49 16.7 1.0000 wtemp
wtemp_50 16 1.0000 wtemp
wtemp_51 14.4 1.0000 wtemp
wtemp_52 11.4 1.0000 wtemp
wtemp_53 10.7 1.0000 wtemp
wtemp_54 10.5 1.0000 wtemp
wtemp_55 10.2 1.0000 wtemp
wtemp_56 10.1 1.0000 wtemp
wtemp_57 9.6 1.0000 wtemp
wtemp_58 9.1 1.0000 wtemp
wtemp_59 16.5 1.0000 wtemp
wtemp_60 16 1.0000 wtemp
wtemp_61 16 1.0000 wtemp
wtemp_62 16 1.0000 wtemp
wtemp_63 15 1.0000 wtemp
wtemp_64 14 1.0000 wtemp
wtemp_65 12 1.0000 wtemp
wtemp_66 11 1.0000 wtemp
wtemp_67 10.2 1.0000 wtemp
wtemp_68 10 1.0000 wtemp
wtemp_69 17.1 1.0000 wtemp
wtemp_70 16.2 1.0000 wtemp
wtemp_71 16 1.0000 wtemp
wtemp_72 15.8 1.0000 wtemp
wtemp_73 15.2 1.0000 wtemp
wtemp_74 14.2 1.0000 wtemp
wtemp_75 12.9 1.0000 wtemp
wtemp_76 11.8 1.0000 wtemp
wtemp_77 11.2 1.0000 wtemp
wtemp_78 10 1.0000 wtemp
wtemp_79 9.6 1.0000 wtemp
wtemp_80 9.6 1.0000 wtemp
wtemp_81 17.8 1.0000 wtemp
wtemp_82 17.5 1.0000 wtemp
wtemp_83 17.2 1.0000 wtemp
wtemp_84 16.7 1.0000 wtemp
wtemp_85 16.2 1.0000 wtemp
wtemp_86 14.5 1.0000 wtemp
wtemp_87 13.4 1.0000 wtemp
wtemp_88 11.8 1.0000 wtemp
wtemp_89 10 1.0000 wtemp
wtemp_90 9.9 1.0000 wtemp
wtemp_91 9.8 1.0000 wtemp
wtemp_92 9.7 1.0000 wtemp
wtemp_93 9.4 1.0000 wtemp
wtemp_94 17.4 1.0000 wtemp
wtemp_95 17.4 1.0000 wtemp
wtemp_96 17.3 1.0000 wtemp
wtemp_97 16.8 1.0000 wtemp
wtemp_98 14.4 1.0000 wtemp
wtemp_99 13.7 1.0000 wtemp
wtemp_100 13.7 1.0000 wtemp
wtemp_101 12.5 1.0000 wtemp
wtemp_102 11.3 1.0000 wtemp
wtemp_103 10.9 1.0000 wtemp
wtemp_104 10.8 1.0000 wtemp
wtemp_105 10.5 1.0000 wtemp
wtemp_106 18.8 1.0000 wtemp
wtemp_107 17.5 1.0000 wtemp
wtemp_108 17.3 1.0000 wtemp
wtemp_109 17.3 1.0000 wtemp
wtemp_110 17 1.0000 wtemp
wtemp_111 16.3 1.0000 wtemp
wtemp_112 13.2 1.0000 wtemp
wtemp_113 11.5 1.0000 wtemp
wtemp_114 10.5 1.0000 wtemp
wtemp_115 9.8 1.0000 wtemp
wtemp_116 9.5 1.0000 wtemp
wtemp_117 9 1.0000 wtemp
wtemp_118 21 1.0000 wtemp
wtemp_119 20.5 1.0000 wtemp
wtemp_120 20 1.0000 wtemp
wtemp_121 19 1.0000 wtemp
wtemp_122 18.5 1.0000 wtemp
wtemp_123 17.5 1.0000 wtemp
wtemp_124 16 1.0000 wtemp
wtemp_125 14.5 1.0000 wtemp
wtemp_126 12.5 1.0000 wtemp
wtemp_127 11.5 1.0000 wtemp
wtemp_128 11.2 1.0000 wtemp
wtemp_129 10.8 1.0000 wtemp
wtemp_130 23.1 1.0000 wtemp
wtemp_131 21.8 1.0000 wtemp
wtemp_132 21.8 1.0000 wtemp
wtemp_133 21.8 1.0000 wtemp
wtemp_134 21.5 1.0000 wtemp
wtemp_135 21.1 1.0000 wtemp
wtemp_136 19 1.0000 wtemp
wtemp_137 17.6 1.0000 wtemp
wtemp_138 16.9 1.0000 wtemp
wtemp_139 16.5 1.0000 wtemp
wtemp_140 16 1.0000 wtemp
wtemp_141 14.7 1.0000 wtemp
wtemp_142 14 1.0000 wtemp
wtemp_143 13.3 1.0000 wtemp
wtemp_144 13 1.0000 wtemp
wtemp_145 12.6 1.0000 wtemp
wtemp_146 12 1.0000 wtemp
wtemp_147 11.7 1.0000 wtemp
wtemp_148 11.4 1.0000 wtemp
wtemp_149 10.6 1.0000 wtemp
wtemp_150 25 1.0000 wtemp
wtemp_151 25 1.0000 wtemp
wtemp_152 25 1.0000 wtemp
wtemp_153 23.5 1.0000 wtemp
wtemp_154 19 1.0000 wtemp
wtemp_155 17.5 1.0000 wtemp
wtemp_156 15 1.0000 wtemp
wtemp_157 14.5 1.0000 wtemp
wtemp_158 14.5 1.0000 wtemp
wtemp_159 12 1.0000 wtemp
wtemp_160 11.5 1.0000 wtemp
wtemp_161 11 1.0000 wtemp
wtemp_162 26 1.0000 wtemp
wtemp_163 26 1.0000 wtemp
wtemp_164 25 1.0000 wtemp
wtemp_165 24 1.0000 wtemp
wtemp_166 22 1.0000 wtemp
wtemp_167 22 1.0000 wtemp
wtemp_168 20 1.0000 wtemp
wtemp_169 18.5 1.0000 wtemp
wtemp_170 17.5 1.0000 wtemp
wtemp_171 16.5 1.0000 wtemp
wtemp_172 16 1.0000 wtemp
wtemp_173 15.8 1.0000 wtemp
wtemp_174 15 1.0000 wtemp
wtemp_175 14.9 1.0000 wtemp
wtemp_176 14 1.0000 wtemp
wtemp_177 13 1.0000 wtemp
wtemp_178 12 1.0000 wtemp
wtemp_179 11.5 1.0000 wtemp
wtemp_180 11 1.0000 wtemp
wtemp_181 11 1.0000 wtemp
wtemp_182 11 1.0000 wtemp
wtemp_183 11 1.0000 wtemp
wtemp_184 25 1.0000 wtemp
wtemp_185 25 1.0000 wtemp
wtemp_186 25 1.0000 wtemp
wtemp_187 24.8 1.0000 wtemp
wtemp_188 20 1.0000 wtemp
wtemp_189 16.8 1.0000 wtemp
wtemp_190 16 1.0000 wtemp
wtemp_191 14.5 1.0000 wtemp
wtemp_192 13.5 1.0000 wtemp
wtemp_193 13 1.0000 wtemp
wtemp_194 11.5 1.0000 wtemp
wtemp_195 11 1.0000 wtemp
wtemp_196 25.7 1.0000 wtemp
wtemp_197 25.5 1.0000 wtemp
wtemp_198 25 1.0000 wtemp
wtemp_199 25 1.0000 wtemp
wtemp_200 24 1.0000 wtemp
wtemp_201 18 1.0000 wtemp
wtemp_202 15.5 1.0000 wtemp
wtemp_203 14 1.0000 wtemp
wtemp_204 13 1.0000 wtemp
wtemp_205 12 1.0000 wtemp
wtemp_206 11.8 1.0000 wtemp
wtemp_207 11.5 1.0000 wtemp
wtemp_208 11.2 1.0000 wtemp
wtemp_209 24.2 1.0000 wtemp
wtemp_210 24.2 1.0000 wtemp
wtemp_211 24.2 1.0000 wtemp
wtemp_212 23.7 1.0000 wtemp
wtemp_213 22.3 1.0000 wtemp
wtemp_214 15.8 1.0000 wtemp
wtemp_215 14.2 1.0000 wtemp
wtemp_216 13 1.0000 wtemp
wtemp_217 12.3 1.0000 wtemp
wtemp_218 11.8 1.0000 wtemp
wtemp_219 11.5 1.0000 wtemp
wtemp_220 11 1.0000 wtemp
wtemp_221 24.5 1.0000 wtemp
wtemp_222 24.5 1.0000 wtemp
wtemp_223 24.5 1.0000 wtemp
wtemp_224 24 1.0000 wtemp
wtemp_225 23.5 1.0000 wtemp
wtemp_226 17.5 1.0000 wtemp
wtemp_227 16 1.0000 wtemp
wtemp_228 14.5 1.0000 wtemp
wtemp_229 12.5 1.0000 wtemp
wtemp_230 12 1.0000 wtemp
wtemp_231 11.5 1.0000 wtemp
wtemp_232 11.5 1.0000 wtemp
wtemp_233 11.3 1.0000 wtemp
wtemp_234 23.5 1.0000 wtemp
wtemp_235 22 1.0000 wtemp
wtemp_236 21 1.0000 wtemp
wtemp_237 20 1.0000 wtemp
wtemp_238 17.5 1.0000 wtemp
wtemp_239 16.5 1.0000 wtemp
wtemp_240 15 1.0000 wtemp
wtemp_241 14.5 1.0000 wtemp
wtemp_242 13.5 1.0000 wtemp
wtemp_243 12.9 1.0000 wtemp
wtemp_244 12.6 1.0000 wtemp
wtemp_245 12.4 1.0000 wtemp
wtemp_246 12.1 1.0000 wtemp
wtemp_247 12 1.0000 wtemp
wtemp_248 12 1.0000 wtemp
wtemp_249 12 1.0000 wtemp
wtemp_250 24 1.0000 wtemp
wtemp_251 23.8 1.0000 wtemp
wtemp_252 23.8 1.0000 wtemp
wtemp_253 23.8 1.0000 wtemp
wtemp_254 23.8 1.0000 wtemp
wtemp_255 19 1.0000 wtemp
wtemp_256 15.5 1.0000 wtemp
wtemp_257 14.8 1.0000 wtemp
wtemp_258 14.2 1.0000 wtemp
wtemp_259 12.5 1.0000 wtemp
wtemp_260 12 1.0000 wtemp
wtemp_261 11.5 1.0000 wtemp
wtemp_262 11.5 1.0000 wtemp
wtemp_263 22 1.0000 wtemp
wtemp_264 22 1.0000 wtemp
wtemp_265 22 1.0000 wtemp
wtemp_266 22 1.0000 wtemp
wtemp_267 21.3 1.0000 wtemp
wtemp_268 19 1.0000 wtemp
wtemp_269 15 1.0000 wtemp
wtemp_270 13.5 1.0000 wtemp
wtemp_271 13 1.0000 wtemp
wtemp_272 12 1.0000 wtemp
wtemp_273 12 1.0000 wtemp
wtemp_274 11.8 1.0000 wtemp
wtemp_275 11.5 1.0000 wtemp
wtemp_276 23.1 1.0000 wtemp
wtemp_277 23 1.0000 wtemp
wtemp_278 21.9 1.0000 wtemp
wtemp_279 21.5 1.0000 wtemp
wtemp_280 20.7 1.0000 wtemp
wtemp_281 19.9 1.0000 wtemp
wtemp_282 19 1.0000 wtemp
wtemp_283 16.9 1.0000 wtemp
wtemp_284 15.9 1.0000 wtemp
wtemp_285 14.5 1.0000 wtemp
wtemp_286 13.8 1.0000 wtemp
wtemp_287 13.4 1.0000 wtemp
wtemp_288 13.2 1.0000 wtemp
wtemp_289 12.7 1.0000 wtemp
wtemp_290 12.1 1.0000 wtemp
wtemp_291 23.5 1.0000 wtemp
wtemp_292 23.5 1.0000 wtemp
wtemp_293 23.5 1.0000 wtemp
wtemp_294 23.2 1.0000 wtemp
wtemp_295 22.5 1.0000 wtemp
wtemp_296 20.5 1.0000 wtemp
wtemp_297 17 1.0000 wtemp
wtemp_298 14.3 1.0000 wtemp
wtemp_299 13.5 1.0000 wtemp
wtemp_300 12.5 1.0000 wtemp
wtemp_301 12 1.0000 wtemp
wtemp_302 12 1.0000 wtemp
wtemp_303 12 1.0000 wtemp
wtemp_304 23 1.0000 wtemp
wtemp_305 23 1.0000 wtemp
wtemp_306 23 1.0000 wtemp
wtemp_307 23 1.0000 wtemp
wtemp_308 23 1.0000 wtemp
wtemp_309 23 1.0000 wtemp
wtemp_310 18 1.0000 wtemp
wtemp_311 15.5 1.0000 wtemp
wtemp_312 14.5 1.0000 wtemp
wtemp_313 13 1.0000 wtemp
wtemp_314 12.2 1.0000 wtemp
wtemp_315 12 1.0000 wtemp
wtemp_316 12 1.0000 wtemp
wtemp_317 22.8 1.0000 wtemp
wtemp_318 22 1.0000 wtemp
wtemp_319 22 1.0000 wtemp
wtemp_320 21.5 1.0000 wtemp
wtemp_321 17.7 1.0000 wtemp
wtemp_322 15 1.0000 wtemp
wtemp_323 13.5 1.0000 wtemp
wtemp_324 12.8 1.0000 wtemp
wtemp_325 12.6 1.0000 wtemp
wtemp_326 12.5 1.0000 wtemp
wtemp_327 21 1.0000 wtemp
wtemp_328 21 1.0000 wtemp
wtemp_329 21 1.0000 wtemp
wtemp_330 21 1.0000 wtemp
wtemp_331 21 1.0000 wtemp
wtemp_332 21 1.0000 wtemp
wtemp_333 20.8 1.0000 wtemp
wtemp_334 16 1.0000 wtemp
wtemp_335 14.8 1.0000 wtemp
wtemp_336 13.5 1.0000 wtemp
wtemp_337 12.8 1.0000 wtemp
wtemp_338 12.5 1.0000 wtemp
wtemp_339 12.5 1.0000 wtemp
wtemp_340 19.2 1.0000 wtemp
wtemp_341 19.2 1.0000 wtemp
wtemp_342 19.2 1.0000 wtemp
wtemp_343 19 1.0000 wtemp
wtemp_344 19 1.0000 wtemp
wtemp_345 19 1.0000 wtemp
wtemp_346 19 1.0000 wtemp
wtemp_347 18 1.0000 wtemp
wtemp_348 14 1.0000 wtemp
wtemp_349 13.5 1.0000 wtemp
wtemp_350 13 1.0000 wtemp
wtemp_351 12.5 1.0000 wtemp
wtemp_352 12.2 1.0000 wtemp
wtemp_353 17.5 1.0000 wtemp
wtemp_354 18 1.0000 wtemp
wtemp_355 18 1.0000 wtemp
wtemp_356 18 1.0000 wtemp
wtemp_357 18 1.0000 wtemp
wtemp_358 15.2 1.0000 wtemp
wtemp_359 14 1.0000 wtemp
wtemp_360 13.2 1.0000 wtemp
wtemp_361 13 1.0000 wtemp
wtemp_362 12.6 1.0000 wtemp
wtemp_363 12.2 1.0000 wtemp
wtemp_364 17.2 1.0000 wtemp
wtemp_365 17.2 1.0000 wtemp
wtemp_366 17.2 1.0000 wtemp
wtemp_367 17.2 1.0000 wtemp
wtemp_368 17.2 1.0000 wtemp
wtemp_369 17.2 1.0000 wtemp
wtemp_370 17.2 1.0000 wtemp
wtemp_371 17.2 1.0000 wtemp
wtemp_372 15.5 1.0000 wtemp
wtemp_373 13.8 1.0000 wtemp
wtemp_374 13.2 1.0000 wtemp
wtemp_375 12.8 1.0000 wtemp
wtemp_376 12.5 1.0000 wtemp
wtemp_377 15.5 1.0000 wtemp
wtemp_378 15.5 1.0000 wtemp
wtemp_379 15.5 1.0000 wtemp
wtemp_380 15.5 1.0000 wtemp
wtemp_381 15.5 1.0000 wtemp
wtemp_382 15.5 1.0000 wtemp
wtemp_383 15.5 1.0000 wtemp
wtemp_384 15.5 1.0000 wtemp
wtemp_385 15.5 1.0000 wtemp
wtemp_386 14 1.0000 wtemp
wtemp_387 13 1.0000 wtemp
wtemp_388 13 1.0000 wtemp
wtemp_389 12.5 1.0000 wtemp
wtemp_390 14 1.0000 wtemp
wtemp_391 14 1.0000 wtemp
wtemp_392 14 1.0000 wtemp
wtemp_393 14 1.0000 wtemp
wtemp_394 14 1.0000 wtemp
wtemp_395 14 1.0000 wtemp
wtemp_396 14 1.0000 wtemp
wtemp_397 14 1.0000 wtemp
wtemp_398 14 1.0000 wtemp
wtemp_399 14 1.0000 wtemp
wtemp_400 14 1.0000 wtemp
wtemp_401 14 1.0000 wtemp
wtemp_402 14 1.0000 wtemp
wtemp_403 13 1.0000 wtemp
wtemp_404 13 1.0000 wtemp
wtemp_405 10 1.0000 wtemp
wtemp_406 10 1.0000 wtemp
wtemp_407 9.5 1.0000 wtemp
wtemp_408 9.5 1.0000 wtemp
wtemp_409 9.5 1.0000 wtemp
wtemp_410 9.5 1.0000 wtemp
wtemp_411 9.5 1.0000 wtemp
wtemp_412 9.5 1.0000 wtemp
wtemp_413 9.5 1.0000 wtemp
wtemp_414 9 1.0000 wtemp
wtemp_415 9 1.0000 wtemp
wtemp_416 9 1.0000 wtemp
wtemp_417 9 1.0000 wtemp
wtemp_418 9.2 1.0000 wtemp
wtemp_419 9.2 1.0000 wtemp
wtemp_420 7.7 1.0000 wtemp
wtemp_421 7.9 1.0000 wtemp
wtemp_422 8 1.0000 wtemp
wtemp_423 8 1.0000 wtemp
wtemp_424 7 1.0000 wtemp
wtemp_425 7 1.0000 wtemp
wtemp_426 7 1.0000 wtemp
wtemp_427 7 1.0000 wtemp
wtemp_428 7 1.0000 wtemp
wtemp_429 7 1.0000 wtemp
wtemp_430 7 1.0000 wtemp
wtemp_431 7 1.0000 wtemp
wtemp_432 7 1.0000 wtemp
wtemp_433 7 1.0000 wtemp
wtemp_434 7 1.0000 wtemp
wtemp_435 7 1.0000 wtemp
wtemp_436 7 1.0000 wtemp
wtemp_437 5.2 1.0000 wtemp
wtemp_438 5.2 1.0000 wtemp
wtemp_439 1.5 1.0000 wtemp
wtemp_440 1.5 1.0000 wtemp
wtemp_441 1.5 1.0000 wtemp
wtemp_442 1.5 1.0000 wtemp
wtemp_443 1.5 1.0000 wtemp
wtemp_444 1.5 1.0000 wtemp
wtemp_445 1.5 1.0000 wtemp
wtemp_446 1.5 1.0000 wtemp
wtemp_447 1.5 1.0000 wtemp
wtemp_448 1.5 1.0000 wtemp
wtemp_449 1.5 1.0000 wtemp
wtemp_450 1.3 1.0000 wtemp
wtemp_451 1.3 1.0000 wtemp
wtemp_452 1.5 1.0000 wtemp
wtemp_453 1.5 1.0000 wtemp
wtemp_454 1.8 1.0000 wtemp
wtemp_455 2 1.0000 wtemp
wtemp_456 2 1.0000 wtemp
wtemp_457 2.2 1.0000 wtemp
wtemp_458 2.2 1.0000 wtemp
wtemp_459 2 1.0000 wtemp
wtemp_460 2.2 1.0000 wtemp
wtemp_461 2.2 1.0000 wtemp
wtemp_462 2.2 1.0000 wtemp
wtemp_463 2.2 1.0000 wtemp
wtemp_464 2.2 1.0000 wtemp
wtemp_465 2.2 1.0000 wtemp
wtemp_466 2.8 1.0000 wtemp
wtemp_467 3 1.0000 wtemp
wtemp_468 2.1 1.0000 wtemp
wtemp_469 2.6 1.0000 wtemp
wtemp_470 2.6 1.0000 wtemp
wtemp_471 2.6 1.0000 wtemp
wtemp_472 2.6 1.0000 wtemp
wtemp_473 2.6 1.0000 wtemp
wtemp_474 2.6 1.0000 wtemp
wtemp_475 2.6 1.0000 wtemp
wtemp_476 2.6 1.0000 wtemp
wtemp_477 2.6 1.0000 wtemp
wtemp_478 2.6 1.0000 wtemp
wtemp_479 2.7 1.0000 wtemp
wtemp_480 1.5 1.0000 wtemp
wtemp_481 1.5 1.0000 wtemp
wtemp_482 7.2 1.0000 wtemp
wtemp_483 7.2 1.0000 wtemp
wtemp_484 7.2 1.0000 wtemp
wtemp_485 7.2 1.0000 wtemp
wtemp_486 7.2 1.0000 wtemp
wtemp_487 7.2 1.0000 wtemp
wtemp_488 7 1.0000 wtemp
wtemp_489 7 1.0000 wtemp
wtemp_490 7 1.0000 wtemp
wtemp_491 6.8 1.0000 wtemp
wtemp_492 6.8 1.0000 wtemp
wtemp_493 6.8 1.0000 wtemp
wtemp_494 6.5 1.0000 wtemp
wtemp_495 7.2 1.0000 wtemp
wtemp_496 7.2 1.0000 wtemp
wtemp_497 7.2 1.0000 wtemp
wtemp_498 7.2 1.0000 wtemp
wtemp_499 7 1.0000 wtemp
wtemp_500 7 1.0000 wtemp
wtemp_501 7 1.0000 wtemp
wtemp_502 6.8 1.0000 wtemp
wtemp_503 6.8 1.0000 wtemp
wtemp_504 6.5 1.0000 wtemp
wtemp_505 8.5 1.0000 wtemp
wtemp_506 8.5 1.0000 wtemp
wtemp_507 8.5 1.0000 wtemp
wtemp_508 8.2 1.0000 wtemp
wtemp_509 8.2 1.0000 wtemp
wtemp_510 8.2 1.0000 wtemp
wtemp_511 8.2 1.0000 wtemp
wtemp_512 8 1.0000 wtemp
wtemp_513 8 1.0000 wtemp
wtemp_514 8 1.0000 wtemp
wtemp_515 8 1.0000 wtemp
wtemp_516 8 1.0000 wtemp
wtemp_517 7.9 1.0000 wtemp
wtemp_518 8.3 1.0000 wtemp
wtemp_519 8 1.0000 wtemp
wtemp_520 7.9 1.0000 wtemp
wtemp_521 7.9 1.0000 wtemp
wtemp_522 7.7 1.0000 wtemp
wtemp_523 7.4 1.0000 wtemp
wtemp_524 7.4 1.0000 wtemp
wtemp_525 10.5 1.0000 wtemp
wtemp_526 12 1.0000 wtemp
wtemp_527 10.4 1.0000 wtemp
wtemp_528 12 1.0000 wtemp
wtemp_529 10.3 1.0000 wtemp
wtemp_530 12 1.0000 wtemp
wtemp_531 10 1.0000 wtemp
wtemp_532 11.5 1.0000 wtemp
wtemp_533 9.3 1.0000 wtemp
wtemp_534 11 1.0000 wtemp
wtemp_535 9 1.0000 wtemp
wtemp_536 12.5 1.0000 wtemp
wtemp_537 12.3 1.0000 wtemp
wtemp_538 12.1 1.0000 wtemp
wtemp_539 12.1 1.0000 wtemp
wtemp_540 12.1 1.0000 wtemp
wtemp_541 12.1 1.0000 wtemp
wtemp_542 12.1 1.0000 wtemp
wtemp_543 12.1 1.0000 wtemp
wtemp_544 12.1 1.0000 wtemp
wtemp_545 12.1 1.0000 wtemp
wtemp_546 12.1 1.0000 wtemp
wtemp_547 12.1 1.0000 wtemp
wtemp_548 12 1.0000 wtemp
wtemp_549 12.5 1.0000 wtemp
wtemp_550 12.8 1.0000 wtemp
wtemp_551 12.8 1.0000 wtemp
wtemp_552 12.8 1.0000 wtemp
wtemp_553 12.5 1.0000 wtemp
wtemp_554 12.5 1.0000 wtemp
wtemp_555 12.3 1.0000 wtemp
wtemp_556 10.8 1.0000 wtemp
wtemp_557 10.8 1.0000 wtemp
wtemp_558 10.8 1.0000 wtemp
wtemp_559 10.8 1.0000 wtemp
wtemp_560 10.7 1.0000 wtemp
wtemp_561 10.7 1.0000 wtemp
wtemp_562 10.6 1.0000 wtemp
wtemp_563 15.4 1.0000 wtemp
wtemp_564 14.5 1.0000 wtemp
wtemp_565 14.2 1.0000 wtemp
wtemp_566 13.9 1.0000 wtemp
wtemp_567 13.6 1.0000 wtemp
wtemp_568 13.4 1.0000 wtemp
wtemp_569 12.5 1.0000 wtemp
wtemp_570 11.6 1.0000 wtemp
wtemp_571 11 1.0000 wtemp
wtemp_572 10.8 1.0000 wtemp
wtemp_573 10.7 1.0000 wtemp
wtemp_574 10.7 1.0000 wtemp
wtemp_575 10.6 1.0000 wtemp
wtemp_576 18.2 1.0000 wtemp
wtemp_577 18.5 1.0000 wtemp
wtemp_578 18 1.0000 wtemp
wtemp_579 16 1.0000 wtemp
wtemp_580 15.1 1.0000 wtemp
wtemp_581 14.2 1.0000 wtemp
wtemp_582 13.8 1.0000 wtemp
wtemp_583 13.5 1.0000 wtemp
wtemp_584 13.2 1.0000 wtemp
wtemp_585 12.8 1.0000 wtemp
wtemp_586 12.5 1.0000 wtemp
wtemp_587 12.5 1.0000 wtemp
wtemp_588 12.5 1.0000 wtemp
wtemp_589 18.8 1.0000 wtemp
wtemp_590 17.9 1.0000 wtemp
wtemp_591 17.4 1.0000 wtemp
wtemp_592 16.8 1.0000 wtemp
wtemp_593 16.4 1.0000 wtemp
wtemp_594 16.1 1.0000 wtemp
wtemp_595 15 1.0000 wtemp
wtemp_596 14.4 1.0000 wtemp
wtemp_597 14 1.0000 wtemp
wtemp_598 13 1.0000 wtemp
wtemp_599 12.8 1.0000 wtemp
wtemp_600 12.5 1.0000 wtemp
wtemp_601 12 1.0000 wtemp
wtemp_602 11.5 1.0000 wtemp
wtemp_603 11.2 1.0000 wtemp
wtemp_604 11 1.0000 wtemp
wtemp_605 11 1.0000 wtemp
wtemp_606 21.2 1.0000 wtemp
wtemp_607 21.2 1.0000 wtemp
wtemp_608 21 1.0000 wtemp
wtemp_609 21 1.0000 wtemp
wtemp_610 16 1.0000 wtemp
wtemp_611 14.5 1.0000 wtemp
wtemp_612 13.5 1.0000 wtemp
wtemp_613 13.5 1.0000 wtemp
wtemp_614 13 1.0000 wtemp
wtemp_615 13 1.0000 wtemp
wtemp_616 13 1.0000 wtemp
wtemp_617 12.5 1.0000 wtemp
wtemp_618 12.5 1.0000 wtemp
wtemp_619 24 1.0000 wtemp
wtemp_620 23.5 1.0000 wtemp
wtemp_621 23 1.0000 wtemp
wtemp_622 22.2 1.0000 wtemp
wtemp_623 20 1.0000 wtemp
wtemp_624 14.5 1.0000 wtemp
wtemp_625 14 1.0000 wtemp
wtemp_626 13.5 1.0000 wtemp
wtemp_627 13.2 1.0000 wtemp
wtemp_628 13 1.0000 wtemp
wtemp_629 13 1.0000 wtemp
wtemp_630 13 1.0000 wtemp
wtemp_631 12.8 1.0000 wtemp
wtemp_632 20.6 1.0000 wtemp
wtemp_633 20.5 1.0000 wtemp
wtemp_634 20.5 1.0000 wtemp
wtemp_635 20.4 1.0000 wtemp
wtemp_636 20.4 1.0000 wtemp
wtemp_637 14.9 1.0000 wtemp
wtemp_638 14.4 1.0000 wtemp
wtemp_639 13.5 1.0000 wtemp
wtemp_640 13 1.0000 wtemp
wtemp_641 12.6 1.0000 wtemp
wtemp_642 12.2 1.0000 wtemp
wtemp_643 12 1.0000 wtemp
wtemp_644 12 1.0000 wtemp
wtemp_645 11.7 1.0000 wtemp
wtemp_646 11.6 1.0000 wtemp
wtemp_647 11.4 1.0000 wtemp
wtemp_648 11.2 1.0000 wtemp
wtemp_649 11.2 1.0000 wtemp
wtemp_650 21 1.0000 wtemp
wtemp_651 21 1.0000 wtemp
wtemp_652 21 1.0000 wtemp
wtemp_653 21 1.0000 wtemp
wtemp_654 21 1.0000 wtemp
wtemp_655 21 1.0000 wtemp
wtemp_656 18 1.0000 wtemp
wtemp_657 14 1.0000 wtemp
wtemp_658 13.2 1.0000 wtemp
wtemp_659 13.1 1.0000 wtemp
wtemp_660 13.1 1.0000 wtemp
wtemp_661 13 1.0000 wtemp
wtemp_662 13 1.0000 wtemp
wtemp_663 21.8 1.0000 wtemp
wtemp_664 21.8 1.0000 wtemp
wtemp_665 21.8 1.0000 wtemp
wtemp_666 21.3 1.0000 wtemp
wtemp_667 21.3 1.0000 wtemp
wtemp_668 19 1.0000 wtemp
wtemp_669 18 1.0000 wtemp
wtemp_670 15.7 1.0000 wtemp
wtemp_671 14.5 1.0000 wtemp
wtemp_672 14 1.0000 wtemp
wtemp_673 14 1.0000 wtemp
wtemp_674 13.4 1.0000 wtemp
wtemp_675 13.2 1.0000 wtemp
wtemp_676 21.4 1.0000 wtemp
wtemp_677 21.3 1.0000 wtemp
wtemp_678 21.2 1.0000 wtemp
wtemp_679 21.1 1.0000 wtemp
wtemp_680 20.3 1.0000 wtemp
wtemp_681 19.5 1.0000 wtemp
wtemp_682 16.1 1.0000 wtemp
wtemp_683 15.9 1.0000 wtemp
wtemp_684 15.3 1.0000 wtemp
wtemp_685 14.3 1.0000 wtemp
wtemp_686 13.9 1.0000 wtemp
wtemp_687 13.4 1.0000 wtemp
wtemp_688 12.7 1.0000 wtemp
wtemp_689 12.6 1.0000 wtemp
wtemp_690 12.3 1.0000 wtemp
wtemp_691 26 1.0000 wtemp
wtemp_692 25 1.0000 wtemp
wtemp_693 24.2 1.0000 wtemp
wtemp_694 23 1.0000 wtemp
wtemp_695 21.8 1.0000 wtemp
wtemp_696 19.3 1.0000 wtemp
wtemp_697 16 1.0000 wtemp
wtemp_698 15 1.0000 wtemp
wtemp_699 14 1.0000 wtemp
wtemp_700 13.8 1.0000 wtemp
wtemp_701 13.5 1.0000 wtemp
wtemp_702 13.3 1.0000 wtemp
wtemp_703 13.2 1.0000 wtemp
wtemp_704 26.8 1.0000 wtemp
wtemp_705 26.2 1.0000 wtemp
wtemp_706 26 1.0000 wtemp
wtemp_707 25.7 1.0000 wtemp
wtemp_708 20.4 1.0000 wtemp
wtemp_709 18 1.0000 wtemp
wtemp_710 17.3 1.0000 wtemp
wtemp_711 15.8 1.0000 wtemp
wtemp_712 15.1 1.0000 wtemp
wtemp_713 14.7 1.0000 wtemp
wtemp_714 14.1 1.0000 wtemp
wtemp_715 13.9 1.0000 wtemp
wtemp_716 13.9 1.0000 wtemp
wtemp_717 23.1 1.0000 wtemp
wtemp_718 22.6 1.0000 wtemp
wtemp_719 20.5 1.0000 wtemp
wtemp_720 18.9 1.0000 wtemp
wtemp_721 17.5 1.0000 wtemp
wtemp_722 16 1.0000 wtemp
wtemp_723 15.2 1.0000 wtemp
wtemp_724 14.9 1.0000 wtemp
wtemp_725 14.6 1.0000 wtemp
wtemp_726 14.3 1.0000 wtemp
wtemp_727 13.8 1.0000 wtemp
wtemp_728 12.8 1.0000 wtemp
wtemp_729 12.2 1.0000 wtemp
wtemp_730 12.1 1.0000 wtemp
wtemp_731 25.8 1.0000 wtemp
wtemp_732 25.6 1.0000 wtemp
wtemp_733 25.5 1.0000 wtemp
wtemp_734 24.4 1.0000 wtemp
wtemp_735 22.4 1.0000 wtemp
wtemp_736 20.6 1.0000 wtemp
wtemp_737 18.8 1.0000 wtemp
wtemp_738 15.9 1.0000 wtemp
wtemp_739 14.7 1.0000 wtemp
wtemp_740 14.5 1.0000 wtemp
wtemp_741 14.3 1.0000 wtemp
wtemp_742 14.1 1.0000 wtemp
wtemp_743 13.8 1.0000 wtemp
wtemp_744 24 1.0000 wtemp
wtemp_745 24 1.0000 wtemp
wtemp_746 24 1.0000 wtemp
wtemp_747 24 1.0000 wtemp
wtemp_748 22 1.0000 wtemp
wtemp_749 20 1.0000 wtemp
wtemp_750 17.1 1.0000 wtemp
wtemp_751 16.3 1.0000 wtemp
wtemp_752 15 1.0000 wtemp
wtemp_753 14.7 1.0000 wtemp
wtemp_754 14.3 1.0000 wtemp
wtemp_755 14.1 1.0000 wtemp
wtemp_756 14 1.0000 wtemp
wtemp_757 21.8 1.0000 wtemp
wtemp_758 21.2 1.0000 wtemp
wtemp_759 20.9 1.0000 wtemp
wtemp_760 19.8 1.0000 wtemp
wtemp_761 17 1.0000 wtemp
wtemp_762 15.8 1.0000 wtemp
wtemp_763 15.2 1.0000 wtemp
wtemp_764 14.4 1.0000 wtemp
wtemp_765 13.4 1.0000 wtemp
wtemp_766 13.2 1.0000 wtemp
wtemp_767 12.9 1.0000 wtemp
wtemp_768 12.8 1.0000 wtemp
wtemp_769 24.2 1.0000 wtemp
wtemp_770 24.1 1.0000 wtemp
wtemp_771 23.8 1.0000 wtemp
wtemp_772 23.1 1.0000 wtemp
wtemp_773 22.6 1.0000 wtemp
wtemp_774 21 1.0000 wtemp
wtemp_775 18.3 1.0000 wtemp
wtemp_776 15.7 1.0000 wtemp
wtemp_777 14.9 1.0000 wtemp
wtemp_778 14.5 1.0000 wtemp
wtemp_779 14.1 1.0000 wtemp
wtemp_780 14 1.0000 wtemp
wtemp_781 14 1.0000 wtemp
wtemp_782 25.7 1.0000 wtemp
wtemp_783 24.7 1.0000 wtemp
wtemp_784 24.4 1.0000 wtemp
wtemp_785 24.2 1.0000 wtemp
wtemp_786 24 1.0000 wtemp
wtemp_787 20.8 1.0000 wtemp
wtemp_788 18 1.0000 wtemp
wtemp_789 16 1.0000 wtemp
wtemp_790 15.3 1.0000 wtemp
wtemp_791 14.3 1.0000 wtemp
wtemp_792 14.3 1.0000 wtemp
wtemp_793 14.1 1.0000 wtemp
wtemp_794 14.1 1.0000 wtemp
wtemp_795 23.8 1.0000 wtemp
wtemp_796 23.1 1.0000 wtemp
wtemp_797 22.5 1.0000 wtemp
wtemp_798 21.9 1.0000 wtemp
wtemp_799 20 1.0000 wtemp
wtemp_800 17.1 1.0000 wtemp
wtemp_801 16.1 1.0000 wtemp
wtemp_802 15.5 1.0000 wtemp
wtemp_803 15 1.0000 wtemp
wtemp_804 14 1.0000 wtemp
wtemp_805 13.2 1.0000 wtemp
wtemp_806 12.5 1.0000 wtemp
wtemp_807 12.5 1.0000 wtemp
wtemp_808 24.6 1.0000 wtemp
wtemp_809 23.5 1.0000 wtemp
wtemp_810 23.3 1.0000 wtemp
wtemp_811 23.2 1.0000 wtemp
wtemp_812 23.1 1.0000 wtemp
wtemp_813 22.8 1.0000 wtemp
wtemp_814 18.2 1.0000 wtemp
wtemp_815 16.9 1.0000 wtemp
wtemp_816 15.2 1.0000 wtemp
wtemp_817 14.5 1.0000 wtemp
wtemp_818 14.1 1.0000 wtemp
wtemp_819 14 1.0000 wtemp
wtemp_820 14 1.0000 wtemp
wtemp_821 24.3 1.0000 wtemp
wtemp_822 24.3 1.0000 wtemp
wtemp_823 24.3 1.0000 wtemp
wtemp_824 23.1 1.0000 wtemp
wtemp_825 23 1.0000 wtemp
wtemp_826 22.2 1.0000 wtemp
wtemp_827 17.9 1.0000 wtemp
wtemp_828 16.1 1.0000 wtemp
wtemp_829 15.3 1.0000 wtemp
wtemp_830 14.6 1.0000 wtemp
wtemp_831 14.3 1.0000 wtemp
wtemp_832 14 1.0000 wtemp
wtemp_833 13.9 1.0000 wtemp
wtemp_834 23.2 1.0000 wtemp
wtemp_835 23.2 1.0000 wtemp
wtemp_836 23.2 1.0000 wtemp
wtemp_837 23.2 1.0000 wtemp
wtemp_838 23.2 1.0000 wtemp
wtemp_839 23.2 1.0000 wtemp
wtemp_840 22.5 1.0000 wtemp
wtemp_841 21 1.0000 wtemp
wtemp_842 18 1.0000 wtemp
wtemp_843 15.5 1.0000 wtemp
wtemp_844 15 1.0000 wtemp
wtemp_845 14.5 1.0000 wtemp
wtemp_846 14 1.0000 wtemp
wtemp_847 21.9 1.0000 wtemp
wtemp_848 21.8 1.0000 wtemp
wtemp_849 21.8 1.0000 wtemp
wtemp_850 18.5 1.0000 wtemp
wtemp_851 17.2 1.0000 wtemp
wtemp_852 15.5 1.0000 wtemp
wtemp_853 14.8 1.0000 wtemp
wtemp_854 14.4 1.0000 wtemp
wtemp_855 14.1 1.0000 wtemp
wtemp_856 13.3 1.0000 wtemp
wtemp_857 12.8 1.0000 wtemp
wtemp_858 12.5 1.0000 wtemp
wtemp_859 22 1.0000 wtemp
wtemp_860 21.8 1.0000 wtemp
wtemp_861 21.8 1.0000 wtemp
wtemp_862 21.8 1.0000 wtemp
wtemp_863 21.8 1.0000 wtemp
wtemp_864 21.8 1.0000 wtemp
wtemp_865 21.8 1.0000 wtemp
wtemp_866 16 1.0000 wtemp
wtemp_867 15 1.0000 wtemp
wtemp_868 14.5 1.0000 wtemp
wtemp_869 14.2 1.0000 wtemp
wtemp_870 14 1.0000 wtemp
wtemp_871 14 1.0000 wtemp
wtemp_872 23 1.0000 wtemp
wtemp_873 23 1.0000 wtemp
wtemp_874 22.5 1.0000 wtemp
wtemp_875 22 1.0000 wtemp
wtemp_876 22 1.0000 wtemp
wtemp_877 21.5 1.0000 wtemp
wtemp_878 21.3 1.0000 wtemp
wtemp_879 19.5 1.0000 wtemp
wtemp_880 16.2 1.0000 wtemp
wtemp_881 15.3 1.0000 wtemp
wtemp_882 14.7 1.0000 wtemp
wtemp_883 14.3 1.0000 wtemp
wtemp_884 14.3 1.0000 wtemp
wtemp_885 20 1.0000 wtemp
wtemp_886 19.8 1.0000 wtemp
wtemp_887 19.8 1.0000 wtemp
wtemp_888 19.8 1.0000 wtemp
wtemp_889 19.8 1.0000 wtemp
wtemp_890 19.8 1.0000 wtemp
wtemp_891 19.1 1.0000 wtemp
wtemp_892 17.5 1.0000 wtemp
wtemp_893 16 1.0000 wtemp
wtemp_894 15 1.0000 wtemp
wtemp_895 14.3 1.0000 wtemp
wtemp_896 14.3 1.0000 wtemp
wtemp_897 14.1 1.0000 wtemp
wtemp_898 17 1.0000 wtemp
wtemp_899 17.2 1.0000 wtemp
wtemp_900 17.3 1.0000 wtemp
wtemp_901 17.4 1.0000 wtemp
wtemp_902 17.2 1.0000 wtemp
wtemp_903 15.3 1.0000 wtemp
wtemp_904 13.9 1.0000 wtemp
wtemp_905 13.2 1.0000 wtemp
wtemp_906 13.2 1.0000 wtemp
wtemp_907 13.1 1.0000 wtemp
wtemp_908 12.7 1.0000 wtemp
wtemp_909 12.5 1.0000 wtemp
wtemp_910 18 1.0000 wtemp
wtemp_911 18 1.0000 wtemp
wtemp_912 17.8 1.0000 wtemp
wtemp_913 17.8 1.0000 wtemp
wtemp_914 17.8 1.0000 wtemp
wtemp_915 17.8 1.0000 wtemp
wtemp_916 17.8 1.0000 wtemp
wtemp_917 17.8 1.0000 wtemp
wtemp_918 17.8 1.0000 wtemp
wtemp_919 16.5 1.0000 wtemp
wtemp_920 15 1.0000 wtemp
wtemp_921 14.8 1.0000 wtemp
wtemp_922 14.8 1.0000 wtemp
wtemp_923 16.5 1.0000 wtemp
wtemp_924 16.5 1.0000 wtemp
wtemp_925 16.5 1.0000 wtemp
wtemp_926 16.5 1.0000 wtemp
wtemp_927 16.5 1.0000 wtemp
wtemp_928 16.5 1.0000 wtemp
wtemp_929 16.5 1.0000 wtemp
wtemp_930 16.5 1.0000 wtemp
wtemp_931 16.5 1.0000 wtemp
wtemp_932 16.2 1.0000 wtemp
wtemp_933 16 1.0000 wtemp
wtemp_934 16 1.0000 wtemp
wtemp_935 15.8 1.0000 wtemp
wtemp_936 15.2 1.0000 wtemp
wtemp_937 15.2 1.0000 wtemp
wtemp_938 15.2 1.0000 wtemp
wtemp_939 15.2 1.0000 wtemp
wtemp_940 15.2 1.0000 wtemp
wtemp_941 15.2 1.0000 wtemp
wtemp_942 15.2 1.0000 wtemp
wtemp_943 15.2 1.0000 wtemp
wtemp_944 15.2 1.0000 wtemp
wtemp_945 15.2 1.0000 wtemp
wtemp_946 15.2 1.0000 wtemp
wtemp_947 15.2 1.0000 wtemp
wtemp_948 15.2 1.0000 wtemp
wtemp_949 14.2 1.0000 wtemp
wtemp_950 14 1.0000 wtemp
wtemp_951 13.8 1.0000 wtemp
wtemp_952 14.8 1.0000 wtemp
wtemp_953 14.8 1.0000 wtemp
wtemp_954 14.8 1.0000 wtemp
wtemp_955 14.8 1.0000 wtemp
wtemp_956 14.8 1.0000 wtemp
wtemp_957 14.8 1.0000 wtemp
wtemp_958 14.8 1.0000 wtemp
wtemp_959 14.8 1.0000 wtemp
wtemp_960 14.8 1.0000 wtemp
wtemp_961 14.8 1.0000 wtemp
wtemp_962 14.7 1.0000 wtemp
wtemp_963 14.7 1.0000 wtemp
wtemp_964 14.7 1.0000 wtemp
wtemp_965 10.9 1.0000 wtemp
wtemp_966 10.7 1.0000 wtemp
wtemp_967 10.6 1.0000 wtemp
wtemp_968 11.8 1.0000 wtemp
wtemp_969 11.8 1.0000 wtemp
wtemp_970 11.8 1.0000 wtemp
wtemp_971 11.8 1.0000 wtemp
wtemp_972 11.8 1.0000 wtemp
wtemp_973 11.8 1.0000 wtemp
wtemp_974 11.6 1.0000 wtemp
wtemp_975 11.6 1.0000 wtemp
wtemp_976 11.5 1.0000 wtemp
wtemp_977 11.5 1.0000 wtemp
wtemp_978 11.5 1.0000 wtemp
wtemp_979 11.5 1.0000 wtemp
wtemp_980 11.8 1.0000 wtemp
wtemp_981 8 1.0000 wtemp
wtemp_982 7.5 1.0000 wtemp
wtemp_983 7.5 1.0000 wtemp
wtemp_984 7.5 1.0000 wtemp
wtemp_985 7.5 1.0000 wtemp
wtemp_986 7.5 1.0000 wtemp
wtemp_987 7.5 1.0000 wtemp
wtemp_988 7.5 1.0000 wtemp
wtemp_989 7.5 1.0000 wtemp
wtemp_990 7.5 1.0000 wtemp
wtemp_991 7.5 1.0000 wtemp
wtemp_992 7.5 1.0000 wtemp
wtemp_993 7.5 1.0000 wtemp
wtemp_994 1 1.0000 wtemp
wtemp_995 1.3 1.0000 wtemp
wtemp_996 1.3 1.0000 wtemp
wtemp_997 1.3 1.0000 wtemp
wtemp_998 1.5 1.0000 wtemp
wtemp_999 1.7 1.0000 wtemp
wtemp_1000 1.8 1.0000 wtemp
wtemp_1001 1.9 1.0000 wtemp
wtemp_1002 2.1 1.0000 wtemp
wtemp_1003 2.4 1.0000 wtemp
wtemp_1004 5.5 1.0000 wtemp
wtemp_1005 5.5 1.0000 wtemp
wtemp_1006 9.6 1.0000 wtemp
wtemp_1007 9.1 1.0000 wtemp
wtemp_1008 7.9 1.0000 wtemp
wtemp_1009 6.7 1.0000 wtemp
wtemp_1010 6.3 1.0000 wtemp
wtemp_1011 6.2 1.0000 wtemp
wtemp_1012 6.1 1.0000 wtemp
wtemp_1013 6 1.0000 wtemp
wtemp_1014 5.7 1.0000 wtemp
wtemp_1015 5.5 1.0000 wtemp
wtemp_1016 5.3 1.0000 wtemp
wtemp_1017 17.3 1.0000 wtemp
wtemp_1018 17.1 1.0000 wtemp
wtemp_1019 16.4 1.0000 wtemp
wtemp_1020 14.9 1.0000 wtemp
wtemp_1021 14.3 1.0000 wtemp
wtemp_1022 13.9 1.0000 wtemp
wtemp_1023 13.8 1.0000 wtemp
wtemp_1024 13.1 1.0000 wtemp
wtemp_1025 13 1.0000 wtemp
wtemp_1026 12.8 1.0000 wtemp
wtemp_1027 11.8 1.0000 wtemp
wtemp_1028 10.8 1.0000 wtemp
wtemp_1029 10.6 1.0000 wtemp
wtemp_1030 10.2 1.0000 wtemp
wtemp_1031 8.7 1.0000 wtemp
wtemp_1032 8.6 1.0000 wtemp
wtemp_1033 8.5 1.0000 wtemp
wtemp_1034 7.9 1.0000 wtemp
wtemp_1035 7.8 1.0000 wtemp
wtemp_1036 7.7 1.0000 wtemp
wtemp_1037 7.7 1.0000 wtemp
wtemp_1038 7.7 1.0000 wtemp
wtemp_1039 16.3 1.0000 wtemp
wtemp_1040 16 1.0000 wtemp
wtemp_1041 15 1.0000 wtemp
wtemp_1042 11.8 1.0000 wtemp
wtemp_1043 11 1.0000 wtemp
wtemp_1044 10.4 1.0000 wtemp
wtemp_1045 10 1.0000 wtemp
wtemp_1046 9.5 1.0000 wtemp
wtemp_1047 9 1.0000 wtemp
wtemp_1048 9 1.0000 wtemp
wtemp_1049 8.8 1.0000 wtemp
wtemp_1050 8.2 1.0000 wtemp
wtemp_1051 8 1.0000 wtemp
wtemp_1052 8 1.0000 wtemp
wtemp_1053 8 1.0000 wtemp
wtemp_1054 17.9 1.0000 wtemp
wtemp_1055 17.7 1.0000 wtemp
wtemp_1056 17.5 1.0000 wtemp
wtemp_1057 17.3 1.0000 wtemp
wtemp_1058 17.1 1.0000 wtemp
wtemp_1059 16.8 1.0000 wtemp
wtemp_1060 16.3 1.0000 wtemp
wtemp_1061 16 1.0000 wtemp
wtemp_1062 14.7 1.0000 wtemp
wtemp_1063 14.2 1.0000 wtemp
wtemp_1064 13.3 1.0000 wtemp
wtemp_1065 11.5 1.0000 wtemp
wtemp_1066 10.7 1.0000 wtemp
wtemp_1067 10.2 1.0000 wtemp
wtemp_1068 9.8 1.0000 wtemp
wtemp_1069 9.7 1.0000 wtemp
wtemp_1070 8.9 1.0000 wtemp
wtemp_1071 8.8 1.0000 wtemp
wtemp_1072 8.8 1.0000 wtemp
wtemp_1073 19.3 1.0000 wtemp
wtemp_1074 19.2 1.0000 wtemp
wtemp_1075 19 1.0000 wtemp
wtemp_1076 18.9 1.0000 wtemp
wtemp_1077 18.6 1.0000 wtemp
wtemp_1078 17.9 1.0000 wtemp
wtemp_1079 16.2 1.0000 wtemp
wtemp_1080 14.7 1.0000 wtemp
wtemp_1081 13.8 1.0000 wtemp
wtemp_1082 12.2 1.0000 wtemp
wtemp_1083 11.6 1.0000 wtemp
wtemp_1084 10.8 1.0000 wtemp