pcf
* control data
restart estimation
3 51559 1 0 1 
1 1 single point 
10 -3  0.3 0.02 9  
10   10   10
0.1 noaui
50 0.005 4 6 0.005 4  
0 0 0 
* singular value decomposition
1
5 5e-7
0
* parameter groups
kw relative 0.01000000 0.0001 switch 1.5 parabolic
* parameter data
kw none factor 0.457501 .320250 0.594751 kw 1 0
cd none factor 0.001399997 .000979997 .001819996 kw 1 0
mxshr none factor 0.20000  .140000 .260000 kw 1 0
* observation groups
wtemp
* observation data
wtemp_1 1 1.00000 wtemp
wtemp_2 2 1.00000 wtemp
wtemp_3 2 1.00000 wtemp
wtemp_4 2 1.00000 wtemp
wtemp_5 2 1.00000 wtemp
wtemp_6 2 1.00000 wtemp
wtemp_7 2 1.00000 wtemp
wtemp_8 2 1.00000 wtemp
wtemp_9 2 1.00000 wtemp
wtemp_10 2 1.00000 wtemp
wtemp_11 2 1.00000 wtemp
wtemp_12 2 1.00000 wtemp
wtemp_13 2 1.00000 wtemp
wtemp_14 4 1.00000 wtemp
wtemp_15 3.5 1.00000 wtemp
wtemp_16 3.5 1.00000 wtemp
wtemp_17 7 1.00000 wtemp
wtemp_18 8 1.00000 wtemp
wtemp_19 8 1.00000 wtemp
wtemp_20 8 1.00000 wtemp
wtemp_21 8 1.00000 wtemp
wtemp_22 8 1.00000 wtemp
wtemp_23 7.5 1.00000 wtemp
wtemp_24 7.5 1.00000 wtemp
wtemp_25 7.5 1.00000 wtemp
wtemp_26 7.5 1.00000 wtemp
wtemp_27 7 1.00000 wtemp
wtemp_28 7 1.00000 wtemp
wtemp_29 6.5 1.00000 wtemp
wtemp_30 8 1.00000 wtemp
wtemp_31 7.7 1.00000 wtemp
wtemp_32 7.5 1.00000 wtemp
wtemp_33 7.3 1.00000 wtemp
wtemp_34 7.2 1.00000 wtemp
wtemp_35 7.2 1.00000 wtemp
wtemp_36 11.5 1.00000 wtemp
wtemp_37 11 1.00000 wtemp
wtemp_38 11 1.00000 wtemp
wtemp_39 10.2 1.00000 wtemp
wtemp_40 10 1.00000 wtemp
wtemp_41 10 1.00000 wtemp
wtemp_42 9 1.00000 wtemp
wtemp_43 8.5 1.00000 wtemp
wtemp_44 8.5 1.00000 wtemp
wtemp_45 8.5 1.00000 wtemp
wtemp_46 8.2 1.00000 wtemp
wtemp_47 8.2 1.00000 wtemp
wtemp_48 7 1.00000 wtemp
wtemp_49 12 1.00000 wtemp
wtemp_50 11 1.00000 wtemp
wtemp_51 10.5 1.00000 wtemp
wtemp_52 10 1.00000 wtemp
wtemp_53 10 1.00000 wtemp
wtemp_54 10 1.00000 wtemp
wtemp_55 9.5 1.00000 wtemp
wtemp_56 9.5 1.00000 wtemp
wtemp_57 9.5 1.00000 wtemp
wtemp_58 9.5 1.00000 wtemp
wtemp_59 9.5 1.00000 wtemp
wtemp_60 9 1.00000 wtemp
wtemp_61 8.5 1.00000 wtemp
wtemp_62 16.7 1.00000 wtemp
wtemp_63 16 1.00000 wtemp
wtemp_64 14.4 1.00000 wtemp
wtemp_65 11.4 1.00000 wtemp
wtemp_66 10.7 1.00000 wtemp
wtemp_67 10.5 1.00000 wtemp
wtemp_68 10.2 1.00000 wtemp
wtemp_69 10.1 1.00000 wtemp
wtemp_70 9.6 1.00000 wtemp
wtemp_71 9.1 1.00000 wtemp
wtemp_72 16.5 1.00000 wtemp
wtemp_73 16 1.00000 wtemp
wtemp_74 16 1.00000 wtemp
wtemp_75 16 1.00000 wtemp
wtemp_76 15 1.00000 wtemp
wtemp_77 14 1.00000 wtemp
wtemp_78 12 1.00000 wtemp
wtemp_79 11 1.00000 wtemp
wtemp_80 10.2 1.00000 wtemp
wtemp_81 10 1.00000 wtemp
wtemp_82 17.1 1.00000 wtemp
wtemp_83 16.2 1.00000 wtemp
wtemp_84 16 1.00000 wtemp
wtemp_85 15.8 1.00000 wtemp
wtemp_86 15.2 1.00000 wtemp
wtemp_87 14.2 1.00000 wtemp
wtemp_88 12.9 1.00000 wtemp
wtemp_89 11.8 1.00000 wtemp
wtemp_90 11.2 1.00000 wtemp
wtemp_91 10 1.00000 wtemp
wtemp_92 9.6 1.00000 wtemp
wtemp_93 9.6 1.00000 wtemp
wtemp_94 17.8 1.00000 wtemp
wtemp_95 17.5 1.00000 wtemp
wtemp_96 17.2 1.00000 wtemp
wtemp_97 16.7 1.00000 wtemp
wtemp_98 16.2 1.00000 wtemp
wtemp_99 14.5 1.00000 wtemp
wtemp_100 13.4 1.00000 wtemp
wtemp_101 11.8 1.00000 wtemp
wtemp_102 10 1.00000 wtemp
wtemp_103 9.9 1.00000 wtemp
wtemp_104 9.8 1.00000 wtemp
wtemp_105 9.7 1.00000 wtemp
wtemp_106 9.4 1.00000 wtemp
wtemp_107 17.4 1.00000 wtemp
wtemp_108 17.4 1.00000 wtemp
wtemp_109 17.3 1.00000 wtemp
wtemp_110 16.8 1.00000 wtemp
wtemp_111 14.4 1.00000 wtemp
wtemp_112 13.7 1.00000 wtemp
wtemp_113 13.7 1.00000 wtemp
wtemp_114 12.5 1.00000 wtemp
wtemp_115 11.3 1.00000 wtemp
wtemp_116 10.9 1.00000 wtemp
wtemp_117 10.8 1.00000 wtemp
wtemp_118 10.5 1.00000 wtemp
wtemp_119 18.8 1.00000 wtemp
wtemp_120 17.5 1.00000 wtemp
wtemp_121 17.3 1.00000 wtemp
wtemp_122 17.3 1.00000 wtemp
wtemp_123 17 1.00000 wtemp
wtemp_124 16.3 1.00000 wtemp
wtemp_125 13.2 1.00000 wtemp
wtemp_126 11.5 1.00000 wtemp
wtemp_127 10.5 1.00000 wtemp
wtemp_128 9.8 1.00000 wtemp
wtemp_129 9.5 1.00000 wtemp
wtemp_130 9 1.00000 wtemp
wtemp_131 21 1.00000 wtemp
wtemp_132 20.5 1.00000 wtemp
wtemp_133 20 1.00000 wtemp
wtemp_134 19 1.00000 wtemp
wtemp_135 18.5 1.00000 wtemp
wtemp_136 17.5 1.00000 wtemp
wtemp_137 16 1.00000 wtemp
wtemp_138 14.5 1.00000 wtemp
wtemp_139 12.5 1.00000 wtemp
wtemp_140 11.5 1.00000 wtemp
wtemp_141 11.2 1.00000 wtemp
wtemp_142 10.8 1.00000 wtemp
wtemp_143 23.1 1.00000 wtemp
wtemp_144 21.8 1.00000 wtemp
wtemp_145 21.8 1.00000 wtemp
wtemp_146 21.8 1.00000 wtemp
wtemp_147 21.5 1.00000 wtemp
wtemp_148 21.1 1.00000 wtemp
wtemp_149 19 1.00000 wtemp
wtemp_150 17.6 1.00000 wtemp
wtemp_151 16.9 1.00000 wtemp
wtemp_152 16.5 1.00000 wtemp
wtemp_153 16 1.00000 wtemp
wtemp_154 14.7 1.00000 wtemp
wtemp_155 14 1.00000 wtemp
wtemp_156 13.3 1.00000 wtemp
wtemp_157 13 1.00000 wtemp
wtemp_158 12.6 1.00000 wtemp
wtemp_159 12 1.00000 wtemp
wtemp_160 11.7 1.00000 wtemp
wtemp_161 11.4 1.00000 wtemp
wtemp_162 10.6 1.00000 wtemp
wtemp_163 25 1.00000 wtemp
wtemp_164 25 1.00000 wtemp
wtemp_165 25 1.00000 wtemp
wtemp_166 23.5 1.00000 wtemp
wtemp_167 19 1.00000 wtemp
wtemp_168 17.5 1.00000 wtemp
wtemp_169 15 1.00000 wtemp
wtemp_170 14.5 1.00000 wtemp
wtemp_171 14.5 1.00000 wtemp
wtemp_172 12 1.00000 wtemp
wtemp_173 11.5 1.00000 wtemp
wtemp_174 11 1.00000 wtemp
wtemp_175 26 1.00000 wtemp
wtemp_176 26 1.00000 wtemp
wtemp_177 25 1.00000 wtemp
wtemp_178 24 1.00000 wtemp
wtemp_179 22 1.00000 wtemp
wtemp_180 22 1.00000 wtemp
wtemp_181 20 1.00000 wtemp
wtemp_182 18.5 1.00000 wtemp
wtemp_183 17.5 1.00000 wtemp
wtemp_184 16.5 1.00000 wtemp
wtemp_185 16 1.00000 wtemp
wtemp_186 15.8 1.00000 wtemp
wtemp_187 15 1.00000 wtemp
wtemp_188 14.9 1.00000 wtemp
wtemp_189 14 1.00000 wtemp
wtemp_190 13 1.00000 wtemp
wtemp_191 12 1.00000 wtemp
wtemp_192 11.5 1.00000 wtemp
wtemp_193 11 1.00000 wtemp
wtemp_194 11 1.00000 wtemp
wtemp_195 11 1.00000 wtemp
wtemp_196 11 1.00000 wtemp
wtemp_197 25 1.00000 wtemp
wtemp_198 25 1.00000 wtemp
wtemp_199 25 1.00000 wtemp
wtemp_200 24.8 1.00000 wtemp
wtemp_201 20 1.00000 wtemp
wtemp_202 16.8 1.00000 wtemp
wtemp_203 16 1.00000 wtemp
wtemp_204 14.5 1.00000 wtemp
wtemp_205 13.5 1.00000 wtemp
wtemp_206 13 1.00000 wtemp
wtemp_207 11.5 1.00000 wtemp
wtemp_208 11 1.00000 wtemp
wtemp_209 25.7 1.00000 wtemp
wtemp_210 25.5 1.00000 wtemp
wtemp_211 25 1.00000 wtemp
wtemp_212 25 1.00000 wtemp
wtemp_213 24 1.00000 wtemp
wtemp_214 18 1.00000 wtemp
wtemp_215 15.5 1.00000 wtemp
wtemp_216 14 1.00000 wtemp
wtemp_217 13 1.00000 wtemp
wtemp_218 12 1.00000 wtemp
wtemp_219 11.8 1.00000 wtemp
wtemp_220 11.5 1.00000 wtemp
wtemp_221 11.2 1.00000 wtemp
wtemp_222 24.2 1.00000 wtemp
wtemp_223 24.2 1.00000 wtemp
wtemp_224 24.2 1.00000 wtemp
wtemp_225 23.7 1.00000 wtemp
wtemp_226 22.3 1.00000 wtemp
wtemp_227 15.8 1.00000 wtemp
wtemp_228 14.2 1.00000 wtemp
wtemp_229 13 1.00000 wtemp
wtemp_230 12.3 1.00000 wtemp
wtemp_231 11.8 1.00000 wtemp
wtemp_232 11.5 1.00000 wtemp
wtemp_233 11 1.00000 wtemp
wtemp_234 24.5 1.00000 wtemp
wtemp_235 24.5 1.00000 wtemp
wtemp_236 24.5 1.00000 wtemp
wtemp_237 24 1.00000 wtemp
wtemp_238 23.5 1.00000 wtemp
wtemp_239 17.5 1.00000 wtemp
wtemp_240 16 1.00000 wtemp
wtemp_241 14.5 1.00000 wtemp
wtemp_242 12.5 1.00000 wtemp
wtemp_243 12 1.00000 wtemp
wtemp_244 11.5 1.00000 wtemp
wtemp_245 11.5 1.00000 wtemp
wtemp_246 11.3 1.00000 wtemp
wtemp_247 23.5 1.00000 wtemp
wtemp_248 22 1.00000 wtemp
wtemp_249 21 1.00000 wtemp
wtemp_250 20 1.00000 wtemp
wtemp_251 17.5 1.00000 wtemp
wtemp_252 16.5 1.00000 wtemp
wtemp_253 15 1.00000 wtemp
wtemp_254 14.5 1.00000 wtemp
wtemp_255 13.5 1.00000 wtemp
wtemp_256 12.9 1.00000 wtemp
wtemp_257 12.6 1.00000 wtemp
wtemp_258 12.4 1.00000 wtemp
wtemp_259 12.1 1.00000 wtemp
wtemp_260 12 1.00000 wtemp
wtemp_261 12 1.00000 wtemp
wtemp_262 12 1.00000 wtemp
wtemp_263 24 1.00000 wtemp
wtemp_264 23.8 1.00000 wtemp
wtemp_265 23.8 1.00000 wtemp
wtemp_266 23.8 1.00000 wtemp
wtemp_267 23.8 1.00000 wtemp
wtemp_268 19 1.00000 wtemp
wtemp_269 15.5 1.00000 wtemp
wtemp_270 14.8 1.00000 wtemp
wtemp_271 14.2 1.00000 wtemp
wtemp_272 12.5 1.00000 wtemp
wtemp_273 12 1.00000 wtemp
wtemp_274 11.5 1.00000 wtemp
wtemp_275 11.5 1.00000 wtemp
wtemp_276 22 1.00000 wtemp
wtemp_277 22 1.00000 wtemp
wtemp_278 22 1.00000 wtemp
wtemp_279 22 1.00000 wtemp
wtemp_280 21.3 1.00000 wtemp
wtemp_281 19 1.00000 wtemp
wtemp_282 15 1.00000 wtemp
wtemp_283 13.5 1.00000 wtemp
wtemp_284 13 1.00000 wtemp
wtemp_285 12 1.00000 wtemp
wtemp_286 12 1.00000 wtemp
wtemp_287 11.8 1.00000 wtemp
wtemp_288 11.5 1.00000 wtemp
wtemp_289 23.1 1.00000 wtemp
wtemp_290 23 1.00000 wtemp
wtemp_291 21.9 1.00000 wtemp
wtemp_292 21.5 1.00000 wtemp
wtemp_293 20.7 1.00000 wtemp
wtemp_294 19.9 1.00000 wtemp
wtemp_295 19 1.00000 wtemp
wtemp_296 16.9 1.00000 wtemp
wtemp_297 15.9 1.00000 wtemp
wtemp_298 14.5 1.00000 wtemp
wtemp_299 13.8 1.00000 wtemp
wtemp_300 13.4 1.00000 wtemp
wtemp_301 13.2 1.00000 wtemp
wtemp_302 12.7 1.00000 wtemp
wtemp_303 12.1 1.00000 wtemp
wtemp_304 23.5 1.00000 wtemp
wtemp_305 23.5 1.00000 wtemp
wtemp_306 23.5 1.00000 wtemp
wtemp_307 23.2 1.00000 wtemp
wtemp_308 22.5 1.00000 wtemp
wtemp_309 20.5 1.00000 wtemp
wtemp_310 17 1.00000 wtemp
wtemp_311 14.3 1.00000 wtemp
wtemp_312 13.5 1.00000 wtemp
wtemp_313 12.5 1.00000 wtemp
wtemp_314 12 1.00000 wtemp
wtemp_315 12 1.00000 wtemp
wtemp_316 12 1.00000 wtemp
wtemp_317 23 1.00000 wtemp
wtemp_318 23 1.00000 wtemp
wtemp_319 23 1.00000 wtemp
wtemp_320 23 1.00000 wtemp
wtemp_321 23 1.00000 wtemp
wtemp_322 23 1.00000 wtemp
wtemp_323 18 1.00000 wtemp
wtemp_324 15.5 1.00000 wtemp
wtemp_325 14.5 1.00000 wtemp
wtemp_326 13 1.00000 wtemp
wtemp_327 12.2 1.00000 wtemp
wtemp_328 12 1.00000 wtemp
wtemp_329 12 1.00000 wtemp
wtemp_330 22.8 1.00000 wtemp
wtemp_331 22 1.00000 wtemp
wtemp_332 22 1.00000 wtemp
wtemp_333 21.5 1.00000 wtemp
wtemp_334 17.7 1.00000 wtemp
wtemp_335 15 1.00000 wtemp
wtemp_336 13.5 1.00000 wtemp
wtemp_337 12.8 1.00000 wtemp
wtemp_338 12.6 1.00000 wtemp
wtemp_339 12.5 1.00000 wtemp
wtemp_340 21 1.00000 wtemp
wtemp_341 21 1.00000 wtemp
wtemp_342 21 1.00000 wtemp
wtemp_343 21 1.00000 wtemp
wtemp_344 21 1.00000 wtemp
wtemp_345 21 1.00000 wtemp
wtemp_346 20.8 1.00000 wtemp
wtemp_347 16 1.00000 wtemp
wtemp_348 14.8 1.00000 wtemp
wtemp_349 13.5 1.00000 wtemp
wtemp_350 12.8 1.00000 wtemp
wtemp_351 12.5 1.00000 wtemp
wtemp_352 12.5 1.00000 wtemp
wtemp_353 19.2 1.00000 wtemp
wtemp_354 19.2 1.00000 wtemp
wtemp_355 19.2 1.00000 wtemp
wtemp_356 19 1.00000 wtemp
wtemp_357 19 1.00000 wtemp
wtemp_358 19 1.00000 wtemp
wtemp_359 19 1.00000 wtemp
wtemp_360 18 1.00000 wtemp
wtemp_361 14 1.00000 wtemp
wtemp_362 13.5 1.00000 wtemp
wtemp_363 13 1.00000 wtemp
wtemp_364 12.5 1.00000 wtemp
wtemp_365 12.2 1.00000 wtemp
wtemp_366 17.5 1.00000 wtemp
wtemp_367 18 1.00000 wtemp
wtemp_368 18 1.00000 wtemp
wtemp_369 18 1.00000 wtemp
wtemp_370 18 1.00000 wtemp
wtemp_371 15.2 1.00000 wtemp
wtemp_372 14 1.00000 wtemp
wtemp_373 13.2 1.00000 wtemp
wtemp_374 13 1.00000 wtemp
wtemp_375 12.6 1.00000 wtemp
wtemp_376 12.2 1.00000 wtemp
wtemp_377 17.2 1.00000 wtemp
wtemp_378 17.2 1.00000 wtemp
wtemp_379 17.2 1.00000 wtemp
wtemp_380 17.2 1.00000 wtemp
wtemp_381 17.2 1.00000 wtemp
wtemp_382 17.2 1.00000 wtemp
wtemp_383 17.2 1.00000 wtemp
wtemp_384 17.2 1.00000 wtemp
wtemp_385 15.5 1.00000 wtemp
wtemp_386 13.8 1.00000 wtemp
wtemp_387 13.2 1.00000 wtemp
wtemp_388 12.8 1.00000 wtemp
wtemp_389 12.5 1.00000 wtemp
wtemp_390 15.5 1.00000 wtemp
wtemp_391 15.5 1.00000 wtemp
wtemp_392 15.5 1.00000 wtemp
wtemp_393 15.5 1.00000 wtemp
wtemp_394 15.5 1.00000 wtemp
wtemp_395 15.5 1.00000 wtemp
wtemp_396 15.5 1.00000 wtemp
wtemp_397 15.5 1.00000 wtemp
wtemp_398 15.5 1.00000 wtemp
wtemp_399 14 1.00000 wtemp
wtemp_400 13 1.00000 wtemp
wtemp_401 13 1.00000 wtemp
wtemp_402 12.5 1.00000 wtemp
wtemp_403 14 1.00000 wtemp
wtemp_404 14 1.00000 wtemp
wtemp_405 14 1.00000 wtemp
wtemp_406 14 1.00000 wtemp
wtemp_407 14 1.00000 wtemp
wtemp_408 14 1.00000 wtemp
wtemp_409 14 1.00000 wtemp
wtemp_410 14 1.00000 wtemp
wtemp_411 14 1.00000 wtemp
wtemp_412 14 1.00000 wtemp
wtemp_413 14 1.00000 wtemp
wtemp_414 14 1.00000 wtemp
wtemp_415 14 1.00000 wtemp
wtemp_416 13 1.00000 wtemp
wtemp_417 13 1.00000 wtemp
wtemp_418 10 1.00000 wtemp
wtemp_419 10 1.00000 wtemp
wtemp_420 9.5 1.00000 wtemp
wtemp_421 9.5 1.00000 wtemp
wtemp_422 9.5 1.00000 wtemp
wtemp_423 9.5 1.00000 wtemp
wtemp_424 9.5 1.00000 wtemp
wtemp_425 9.5 1.00000 wtemp
wtemp_426 9.5 1.00000 wtemp
wtemp_427 9 1.00000 wtemp
wtemp_428 9 1.00000 wtemp
wtemp_429 9 1.00000 wtemp
wtemp_430 9 1.00000 wtemp
wtemp_431 9.2 1.00000 wtemp
wtemp_432 9.2 1.00000 wtemp
wtemp_433 7.7 1.00000 wtemp
wtemp_434 7.9 1.00000 wtemp
wtemp_435 8 1.00000 wtemp
wtemp_436 8 1.00000 wtemp
wtemp_437 7 1.00000 wtemp
wtemp_438 7 1.00000 wtemp
wtemp_439 7 1.00000 wtemp
wtemp_440 7 1.00000 wtemp
wtemp_441 7 1.00000 wtemp
wtemp_442 7 1.00000 wtemp
wtemp_443 7 1.00000 wtemp
wtemp_444 7 1.00000 wtemp
wtemp_445 7 1.00000 wtemp
wtemp_446 7 1.00000 wtemp
wtemp_447 7 1.00000 wtemp
wtemp_448 7 1.00000 wtemp
wtemp_449 7 1.00000 wtemp
wtemp_450 5.2 1.00000 wtemp
wtemp_451 5.2 1.00000 wtemp
wtemp_452 1.5 1.00000 wtemp
wtemp_453 1.5 1.00000 wtemp
wtemp_454 1.5 1.00000 wtemp
wtemp_455 1.5 1.00000 wtemp
wtemp_456 1.5 1.00000 wtemp
wtemp_457 1.5 1.00000 wtemp
wtemp_458 1.5 1.00000 wtemp
wtemp_459 1.5 1.00000 wtemp
wtemp_460 1.5 1.00000 wtemp
wtemp_461 1.5 1.00000 wtemp
wtemp_462 1.5 1.00000 wtemp
wtemp_463 1.3 1.00000 wtemp
wtemp_464 1.3 1.00000 wtemp
wtemp_465 1.5 1.00000 wtemp
wtemp_466 1.5 1.00000 wtemp
wtemp_467 1.8 1.00000 wtemp
wtemp_468 2 1.00000 wtemp
wtemp_469 2 1.00000 wtemp
wtemp_470 2.2 1.00000 wtemp
wtemp_471 2.2 1.00000 wtemp
wtemp_472 2 1.00000 wtemp
wtemp_473 2.2 1.00000 wtemp
wtemp_474 2.2 1.00000 wtemp
wtemp_475 2.2 1.00000 wtemp
wtemp_476 2.2 1.00000 wtemp
wtemp_477 2.2 1.00000 wtemp
wtemp_478 2.2 1.00000 wtemp
wtemp_479 2.8 1.00000 wtemp
wtemp_480 3 1.00000 wtemp
wtemp_481 2.1 1.00000 wtemp
wtemp_482 2.6 1.00000 wtemp
wtemp_483 2.6 1.00000 wtemp
wtemp_484 2.6 1.00000 wtemp
wtemp_485 2.6 1.00000 wtemp
wtemp_486 2.6 1.00000 wtemp
wtemp_487 2.6 1.00000 wtemp
wtemp_488 2.6 1.00000 wtemp
wtemp_489 2.6 1.00000 wtemp
wtemp_490 2.6 1.00000 wtemp
wtemp_491 2.6 1.00000 wtemp
wtemp_492 2.7 1.00000 wtemp
wtemp_493 1.5 1.00000 wtemp
wtemp_494 1.5 1.00000 wtemp
wtemp_495 7.2 1.00000 wtemp
wtemp_496 7.2 1.00000 wtemp
wtemp_497 7.2 1.00000 wtemp
wtemp_498 7.2 1.00000 wtemp
wtemp_499 7.2 1.00000 wtemp
wtemp_500 7.2 1.00000 wtemp
wtemp_501 7 1.00000 wtemp
wtemp_502 7 1.00000 wtemp
wtemp_503 7 1.00000 wtemp
wtemp_504 6.8 1.00000 wtemp
wtemp_505 6.8 1.00000 wtemp
wtemp_506 6.8 1.00000 wtemp
wtemp_507 6.5 1.00000 wtemp
wtemp_508 7.2 1.00000 wtemp
wtemp_509 7.2 1.00000 wtemp
wtemp_510 7.2 1.00000 wtemp
wtemp_511 7.2 1.00000 wtemp
wtemp_512 7 1.00000 wtemp
wtemp_513 7 1.00000 wtemp
wtemp_514 7 1.00000 wtemp
wtemp_515 6.8 1.00000 wtemp
wtemp_516 6.8 1.00000 wtemp
wtemp_517 6.5 1.00000 wtemp
wtemp_518 8.5 1.00000 wtemp
wtemp_519 8.5 1.00000 wtemp
wtemp_520 8.5 1.00000 wtemp
wtemp_521 8.2 1.00000 wtemp
wtemp_522 8.2 1.00000 wtemp
wtemp_523 8.2 1.00000 wtemp
wtemp_524 8.2 1.00000 wtemp
wtemp_525 8 1.00000 wtemp
wtemp_526 8 1.00000 wtemp
wtemp_527 8 1.00000 wtemp
wtemp_528 8 1.00000 wtemp
wtemp_529 8 1.00000 wtemp
wtemp_530 7.9 1.00000 wtemp
wtemp_531 8.3 1.00000 wtemp
wtemp_532 8 1.00000 wtemp
wtemp_533 7.9 1.00000 wtemp
wtemp_534 7.9 1.00000 wtemp
wtemp_535 7.7 1.00000 wtemp
wtemp_536 7.4 1.00000 wtemp
wtemp_537 7.4 1.00000 wtemp
wtemp_538 10.5 1.00000 wtemp
wtemp_539 12 1.00000 wtemp
wtemp_540 10.4 1.00000 wtemp
wtemp_541 12 1.00000 wtemp
wtemp_542 10.3 1.00000 wtemp
wtemp_543 12 1.00000 wtemp
wtemp_544 10 1.00000 wtemp
wtemp_545 11.5 1.00000 wtemp
wtemp_546 9.3 1.00000 wtemp
wtemp_547 11 1.00000 wtemp
wtemp_548 9 1.00000 wtemp
wtemp_549 12.5 1.00000 wtemp
wtemp_550 12.3 1.00000 wtemp
wtemp_551 12.1 1.00000 wtemp
wtemp_552 12.1 1.00000 wtemp
wtemp_553 12.1 1.00000 wtemp
wtemp_554 12.1 1.00000 wtemp
wtemp_555 12.1 1.00000 wtemp
wtemp_556 12.1 1.00000 wtemp
wtemp_557 12.1 1.00000 wtemp
wtemp_558 12.1 1.00000 wtemp
wtemp_559 12.1 1.00000 wtemp
wtemp_560 12.1 1.00000 wtemp
wtemp_561 12 1.00000 wtemp
wtemp_562 12.5 1.00000 wtemp
wtemp_563 12.8 1.00000 wtemp
wtemp_564 12.8 1.00000 wtemp
wtemp_565 12.8 1.00000 wtemp
wtemp_566 12.5 1.00000 wtemp
wtemp_567 12.5 1.00000 wtemp
wtemp_568 12.3 1.00000 wtemp
wtemp_569 10.8 1.00000 wtemp
wtemp_570 10.8 1.00000 wtemp
wtemp_571 10.8 1.00000 wtemp
wtemp_572 10.8 1.00000 wtemp
wtemp_573 10.7 1.00000 wtemp
wtemp_574 10.7 1.00000 wtemp
wtemp_575 10.6 1.00000 wtemp
wtemp_576 15.4 1.00000 wtemp
wtemp_577 14.5 1.00000 wtemp
wtemp_578 14.2 1.00000 wtemp
wtemp_579 13.9 1.00000 wtemp
wtemp_580 13.6 1.00000 wtemp
wtemp_581 13.4 1.00000 wtemp
wtemp_582 12.5 1.00000 wtemp
wtemp_583 11.6 1.00000 wtemp
wtemp_584 11 1.00000 wtemp
wtemp_585 10.8 1.00000 wtemp
wtemp_586 10.7 1.00000 wtemp
wtemp_587 10.7 1.00000 wtemp
wtemp_588 10.6 1.00000 wtemp
wtemp_589 18.2 1.00000 wtemp
wtemp_590 18.5 1.00000 wtemp
wtemp_591 18 1.00000 wtemp
wtemp_592 16 1.00000 wtemp
wtemp_593 15.1 1.00000 wtemp
wtemp_594 14.2 1.00000 wtemp
wtemp_595 13.8 1.00000 wtemp
wtemp_596 13.5 1.00000 wtemp
wtemp_597 13.2 1.00000 wtemp
wtemp_598 12.8 1.00000 wtemp
wtemp_599 12.5 1.00000 wtemp
wtemp_600 12.5 1.00000 wtemp
wtemp_601 12.5 1.00000 wtemp
wtemp_602 18.8 1.00000 wtemp
wtemp_603 17.9 1.00000 wtemp
wtemp_604 17.4 1.00000 wtemp
wtemp_605 16.8 1.00000 wtemp
wtemp_606 16.4 1.00000 wtemp
wtemp_607 16.1 1.00000 wtemp
wtemp_608 15 1.00000 wtemp
wtemp_609 14.4 1.00000 wtemp
wtemp_610 14 1.00000 wtemp
wtemp_611 13 1.00000 wtemp
wtemp_612 12.8 1.00000 wtemp
wtemp_613 12.5 1.00000 wtemp
wtemp_614 12 1.00000 wtemp
wtemp_615 11.5 1.00000 wtemp
wtemp_616 11.2 1.00000 wtemp
wtemp_617 11 1.00000 wtemp
wtemp_618 11 1.00000 wtemp
wtemp_619 21.2 1.00000 wtemp
wtemp_620 21.2 1.00000 wtemp
wtemp_621 21 1.00000 wtemp
wtemp_622 21 1.00000 wtemp
wtemp_623 16 1.00000 wtemp
wtemp_624 14.5 1.00000 wtemp
wtemp_625 13.5 1.00000 wtemp
wtemp_626 13.5 1.00000 wtemp
wtemp_627 13 1.00000 wtemp
wtemp_628 13 1.00000 wtemp
wtemp_629 13 1.00000 wtemp
wtemp_630 12.5 1.00000 wtemp
wtemp_631 12.5 1.00000 wtemp
wtemp_632 24 1.00000 wtemp
wtemp_633 23.5 1.00000 wtemp
wtemp_634 23 1.00000 wtemp
wtemp_635 22.2 1.00000 wtemp
wtemp_636 20 1.00000 wtemp
wtemp_637 14.5 1.00000 wtemp
wtemp_638 14 1.00000 wtemp
wtemp_639 13.5 1.00000 wtemp
wtemp_640 13.2 1.00000 wtemp
wtemp_641 13 1.00000 wtemp
wtemp_642 13 1.00000 wtemp
wtemp_643 13 1.00000 wtemp
wtemp_644 12.8 1.00000 wtemp
wtemp_645 20.6 1.00000 wtemp
wtemp_646 20.5 1.00000 wtemp
wtemp_647 20.5 1.00000 wtemp
wtemp_648 20.4 1.00000 wtemp
wtemp_649 20.4 1.00000 wtemp
wtemp_650 14.9 1.00000 wtemp
wtemp_651 14.4 1.00000 wtemp
wtemp_652 13.5 1.00000 wtemp
wtemp_653 13 1.00000 wtemp
wtemp_654 12.6 1.00000 wtemp
wtemp_655 12.2 1.00000 wtemp
wtemp_656 12 1.00000 wtemp
wtemp_657 12 1.00000 wtemp
wtemp_658 11.7 1.00000 wtemp
wtemp_659 11.6 1.00000 wtemp
wtemp_660 11.4 1.00000 wtemp
wtemp_661 11.2 1.00000 wtemp
wtemp_662 11.2 1.00000 wtemp
wtemp_663 21 1.00000 wtemp
wtemp_664 21 1.00000 wtemp
wtemp_665 21 1.00000 wtemp
wtemp_666 21 1.00000 wtemp
wtemp_667 21 1.00000 wtemp
wtemp_668 21 1.00000 wtemp
wtemp_669 18 1.00000 wtemp
wtemp_670 14 1.00000 wtemp
wtemp_671 13.2 1.00000 wtemp
wtemp_672 13.1 1.00000 wtemp
wtemp_673 13.1 1.00000 wtemp
wtemp_674 13 1.00000 wtemp
wtemp_675 13 1.00000 wtemp
wtemp_676 21.8 1.00000 wtemp
wtemp_677 21.8 1.00000 wtemp
wtemp_678 21.8 1.00000 wtemp
wtemp_679 21.3 1.00000 wtemp
wtemp_680 21.3 1.00000 wtemp
wtemp_681 19 1.00000 wtemp
wtemp_682 18 1.00000 wtemp
wtemp_683 15.7 1.00000 wtemp
wtemp_684 14.5 1.00000 wtemp
wtemp_685 14 1.00000 wtemp
wtemp_686 14 1.00000 wtemp
wtemp_687 13.4 1.00000 wtemp
wtemp_688 13.2 1.00000 wtemp
wtemp_689 21.4 1.00000 wtemp
wtemp_690 21.3 1.00000 wtemp
wtemp_691 21.2 1.00000 wtemp
wtemp_692 21.1 1.00000 wtemp
wtemp_693 20.3 1.00000 wtemp
wtemp_694 19.5 1.00000 wtemp
wtemp_695 16.1 1.00000 wtemp
wtemp_696 15.9 1.00000 wtemp
wtemp_697 15.3 1.00000 wtemp
wtemp_698 14.3 1.00000 wtemp
wtemp_699 13.9 1.00000 wtemp
wtemp_700 13.4 1.00000 wtemp
wtemp_701 12.7 1.00000 wtemp
wtemp_702 12.6 1.00000 wtemp
wtemp_703 12.3 1.00000 wtemp
wtemp_704 26 1.00000 wtemp
wtemp_705 25 1.00000 wtemp
wtemp_706 24.2 1.00000 wtemp
wtemp_707 23 1.00000 wtemp
wtemp_708 21.8 1.00000 wtemp
wtemp_709 19.3 1.00000 wtemp
wtemp_710 16 1.00000 wtemp
wtemp_711 15 1.00000 wtemp
wtemp_712 14 1.00000 wtemp
wtemp_713 13.8 1.00000 wtemp
wtemp_714 13.5 1.00000 wtemp
wtemp_715 13.3 1.00000 wtemp
wtemp_716 13.2 1.00000 wtemp
wtemp_717 26.8 1.00000 wtemp
wtemp_718 26.2 1.00000 wtemp
wtemp_719 26 1.00000 wtemp
wtemp_720 25.7 1.00000 wtemp
wtemp_721 20.4 1.00000 wtemp
wtemp_722 18 1.00000 wtemp
wtemp_723 17.3 1.00000 wtemp
wtemp_724 15.8 1.00000 wtemp
wtemp_725 15.1 1.00000 wtemp
wtemp_726 14.7 1.00000 wtemp
wtemp_727 14.1 1.00000 wtemp
wtemp_728 13.9 1.00000 wtemp
wtemp_729 13.9 1.00000 wtemp
wtemp_730 23.1 1.00000 wtemp
wtemp_731 22.6 1.00000 wtemp
wtemp_732 20.5 1.00000 wtemp
wtemp_733 18.9 1.00000 wtemp
wtemp_734 17.5 1.00000 wtemp
wtemp_735 16 1.00000 wtemp
wtemp_736 15.2 1.00000 wtemp
wtemp_737 14.9 1.00000 wtemp
wtemp_738 14.6 1.00000 wtemp
wtemp_739 14.3 1.00000 wtemp
wtemp_740 13.8 1.00000 wtemp
wtemp_741 12.8 1.00000 wtemp
wtemp_742 12.2 1.00000 wtemp
wtemp_743 12.1 1.00000 wtemp
wtemp_744 25.8 1.00000 wtemp
wtemp_745 25.6 1.00000 wtemp
wtemp_746 25.5 1.00000 wtemp
wtemp_747 24.4 1.00000 wtemp
wtemp_748 22.4 1.00000 wtemp
wtemp_749 20.6 1.00000 wtemp
wtemp_750 18.8 1.00000 wtemp
wtemp_751 15.9 1.00000 wtemp
wtemp_752 14.7 1.00000 wtemp
wtemp_753 14.5 1.00000 wtemp
wtemp_754 14.3 1.00000 wtemp
wtemp_755 14.1 1.00000 wtemp
wtemp_756 13.8 1.00000 wtemp
wtemp_757 24 1.00000 wtemp
wtemp_758 24 1.00000 wtemp
wtemp_759 24 1.00000 wtemp
wtemp_760 24 1.00000 wtemp
wtemp_761 22 1.00000 wtemp
wtemp_762 20 1.00000 wtemp
wtemp_763 17.1 1.00000 wtemp
wtemp_764 16.3 1.00000 wtemp
wtemp_765 15 1.00000 wtemp
wtemp_766 14.7 1.00000 wtemp
wtemp_767 14.3 1.00000 wtemp
wtemp_768 14.1 1.00000 wtemp
wtemp_769 14 1.00000 wtemp
wtemp_770 21.8 1.00000 wtemp
wtemp_771 21.2 1.00000 wtemp
wtemp_772 20.9 1.00000 wtemp
wtemp_773 19.8 1.00000 wtemp
wtemp_774 17 1.00000 wtemp
wtemp_775 15.8 1.00000 wtemp
wtemp_776 15.2 1.00000 wtemp
wtemp_777 14.4 1.00000 wtemp
wtemp_778 13.4 1.00000 wtemp
wtemp_779 13.2 1.00000 wtemp
wtemp_780 12.9 1.00000 wtemp
wtemp_781 12.8 1.00000 wtemp
wtemp_782 24.2 1.00000 wtemp
wtemp_783 24.1 1.00000 wtemp
wtemp_784 23.8 1.00000 wtemp
wtemp_785 23.1 1.00000 wtemp
wtemp_786 22.6 1.00000 wtemp
wtemp_787 21 1.00000 wtemp
wtemp_788 18.3 1.00000 wtemp
wtemp_789 15.7 1.00000 wtemp
wtemp_790 14.9 1.00000 wtemp
wtemp_791 14.5 1.00000 wtemp
wtemp_792 14.1 1.00000 wtemp
wtemp_793 14 1.00000 wtemp
wtemp_794 14 1.00000 wtemp
wtemp_795 25.7 1.00000 wtemp
wtemp_796 24.7 1.00000 wtemp
wtemp_797 24.4 1.00000 wtemp
wtemp_798 24.2 1.00000 wtemp
wtemp_799 24 1.00000 wtemp
wtemp_800 20.8 1.00000 wtemp
wtemp_801 18 1.00000 wtemp
wtemp_802 16 1.00000 wtemp
wtemp_803 15.3 1.00000 wtemp
wtemp_804 14.3 1.00000 wtemp
wtemp_805 14.3 1.00000 wtemp
wtemp_806 14.1 1.00000 wtemp
wtemp_807 14.1 1.00000 wtemp
wtemp_808 23.8 1.00000 wtemp
wtemp_809 23.1 1.00000 wtemp
wtemp_810 22.5 1.00000 wtemp
wtemp_811 21.9 1.00000 wtemp
wtemp_812 20 1.00000 wtemp
wtemp_813 17.1 1.00000 wtemp
wtemp_814 16.1 1.00000 wtemp
wtemp_815 15.5 1.00000 wtemp
wtemp_816 15 1.00000 wtemp
wtemp_817 14 1.00000 wtemp
wtemp_818 13.2 1.00000 wtemp
wtemp_819 12.5 1.00000 wtemp
wtemp_820 12.5 1.00000 wtemp
wtemp_821 24.6 1.00000 wtemp
wtemp_822 23.5 1.00000 wtemp
wtemp_823 23.3 1.00000 wtemp
wtemp_824 23.2 1.00000 wtemp
wtemp_825 23.1 1.00000 wtemp
wtemp_826 22.8 1.00000 wtemp
wtemp_827 18.2 1.00000 wtemp
wtemp_828 16.9 1.00000 wtemp
wtemp_829 15.2 1.00000 wtemp
wtemp_830 14.5 1.00000 wtemp
wtemp_831 14.1 1.00000 wtemp
wtemp_832 14 1.00000 wtemp
wtemp_833 14 1.00000 wtemp
wtemp_834 24.3 1.00000 wtemp
wtemp_835 24.3 1.00000 wtemp
wtemp_836 24.3 1.00000 wtemp
wtemp_837 23.1 1.00000 wtemp
wtemp_838 23 1.00000 wtemp
wtemp_839 22.2 1.00000 wtemp
wtemp_840 17.9 1.00000 wtemp
wtemp_841 16.1 1.00000 wtemp
wtemp_842 15.3 1.00000 wtemp
wtemp_843 14.6 1.00000 wtemp
wtemp_844 14.3 1.00000 wtemp
wtemp_845 14 1.00000 wtemp
wtemp_846 13.9 1.00000 wtemp
wtemp_847 23.2 1.00000 wtemp
wtemp_848 23.2 1.00000 wtemp
wtemp_849 23.2 1.00000 wtemp
wtemp_850 23.2 1.00000 wtemp
wtemp_851 23.2 1.00000 wtemp
wtemp_852 23.2 1.00000 wtemp
wtemp_853 22.5 1.00000 wtemp
wtemp_854 21 1.00000 wtemp
wtemp_855 18 1.00000 wtemp
wtemp_856 15.5 1.00000 wtemp
wtemp_857 15 1.00000 wtemp
wtemp_858 14.5 1.00000 wtemp
wtemp_859 14 1.00000 wtemp
wtemp_860 21.9 1.00000 wtemp
wtemp_861 21.8 1.00000 wtemp
wtemp_862 21.8 1.00000 wtemp
wtemp_863 18.5 1.00000 wtemp
wtemp_864 17.2 1.00000 wtemp
wtemp_865 15.5 1.00000 wtemp
wtemp_866 14.8 1.00000 wtemp
wtemp_867 14.4 1.00000 wtemp
wtemp_868 14.1 1.00000 wtemp
wtemp_869 13.3 1.00000 wtemp
wtemp_870 12.8 1.00000 wtemp
wtemp_871 12.5 1.00000 wtemp
wtemp_872 22 1.00000 wtemp
wtemp_873 21.8 1.00000 wtemp
wtemp_874 21.8 1.00000 wtemp
wtemp_875 21.8 1.00000 wtemp
wtemp_876 21.8 1.00000 wtemp
wtemp_877 21.8 1.00000 wtemp
wtemp_878 21.8 1.00000 wtemp
wtemp_879 16 1.00000 wtemp
wtemp_880 15 1.00000 wtemp
wtemp_881 14.5 1.00000 wtemp
wtemp_882 14.2 1.00000 wtemp
wtemp_883 14 1.00000 wtemp
wtemp_884 14 1.00000 wtemp
wtemp_885 23 1.00000 wtemp
wtemp_886 23 1.00000 wtemp
wtemp_887 22.5 1.00000 wtemp
wtemp_888 22 1.00000 wtemp
wtemp_889 22 1.00000 wtemp
wtemp_890 21.5 1.00000 wtemp
wtemp_891 21.3 1.00000 wtemp
wtemp_892 19.5 1.00000 wtemp
wtemp_893 16.2 1.00000 wtemp
wtemp_894 15.3 1.00000 wtemp
wtemp_895 14.7 1.00000 wtemp
wtemp_896 14.3 1.00000 wtemp
wtemp_897 14.3 1.00000 wtemp
wtemp_898 20 1.00000 wtemp
wtemp_899 19.8 1.00000 wtemp
wtemp_900 19.8 1.00000 wtemp
wtemp_901 19.8 1.00000 wtemp
wtemp_902 19.8 1.00000 wtemp
wtemp_903 19.8 1.00000 wtemp
wtemp_904 19.1 1.00000 wtemp
wtemp_905 17.5 1.00000 wtemp
wtemp_906 16 1.00000 wtemp
wtemp_907 15 1.00000 wtemp
wtemp_908 14.3 1.00000 wtemp
wtemp_909 14.3 1.00000 wtemp
wtemp_910 14.1 1.00000 wtemp
wtemp_911 17 1.00000 wtemp
wtemp_912 17.2 1.00000 wtemp
wtemp_913 17.3 1.00000 wtemp
wtemp_914 17.4 1.00000 wtemp
wtemp_915 17.2 1.00000 wtemp
wtemp_916 15.3 1.00000 wtemp
wtemp_917 13.9 1.00000 wtemp
wtemp_918 13.2 1.00000 wtemp
wtemp_919 13.2 1.00000 wtemp
wtemp_920 13.1 1.00000 wtemp
wtemp_921 12.7 1.00000 wtemp
wtemp_922 12.5 1.00000 wtemp
wtemp_923 18 1.00000 wtemp
wtemp_924 18 1.00000 wtemp
wtemp_925 17.8 1.00000 wtemp
wtemp_926 17.8 1.00000 wtemp
wtemp_927 17.8 1.00000 wtemp
wtemp_928 17.8 1.00000 wtemp
wtemp_929 17.8 1.00000 wtemp
wtemp_930 17.8 1.00000 wtemp
wtemp_931 17.8 1.00000 wtemp
wtemp_932 16.5 1.00000 wtemp
wtemp_933 15 1.00000 wtemp
wtemp_934 14.8 1.00000 wtemp
wtemp_935 14.8 1.00000 wtemp
wtemp_936 16.5 1.00000 wtemp
wtemp_937 16.5 1.00000 wtemp
wtemp_938 16.5 1.00000 wtemp
wtemp_939 16.5 1.00000 wtemp
wtemp_940 16.5 1.00000 wtemp
wtemp_941 16.5 1.00000 wtemp
wtemp_942 16.5 1.00000 wtemp
wtemp_943 16.5 1.00000 wtemp
wtemp_944 16.5 1.00000 wtemp
wtemp_945 16.2 1.00000 wtemp
wtemp_946 16 1.00000 wtemp
wtemp_947 16 1.00000 wtemp
wtemp_948 15.8 1.00000 wtemp
wtemp_949 15.2 1.00000 wtemp
wtemp_950 15.2 1.00000 wtemp
wtemp_951 15.2 1.00000 wtemp
wtemp_952 15.2 1.00000 wtemp
wtemp_953 15.2 1.00000 wtemp
wtemp_954 15.2 1.00000 wtemp
wtemp_955 15.2 1.00000 wtemp
wtemp_956 15.2 1.00000 wtemp
wtemp_957 15.2 1.00000 wtemp
wtemp_958 15.2 1.00000 wtemp
wtemp_959 15.2 1.00000 wtemp
wtemp_960 15.2 1.00000 wtemp
wtemp_961 15.2 1.00000 wtemp
wtemp_962 14.2 1.00000 wtemp
wtemp_963 14 1.00000 wtemp
wtemp_964 13.8 1.00000 wtemp
wtemp_965 14.8 1.00000 wtemp
wtemp_966 14.8 1.00000 wtemp
wtemp_967 14.8 1.00000 wtemp
wtemp_968 14.8 1.00000 wtemp
wtemp_969 14.8 1.00000 wtemp
wtemp_970 14.8 1.00000 wtemp
wtemp_971 14.8 1.00000 wtemp
wtemp_972 14.8 1.00000 wtemp
wtemp_973 14.8 1.00000 wtemp
wtemp_974 14.8 1.00000 wtemp
wtemp_975 14.7 1.00000 wtemp
wtemp_976 14.7 1.00000 wtemp
wtemp_977 14.7 1.00000 wtemp
wtemp_978 10.9 1.00000 wtemp
wtemp_979 10.7 1.00000 wtemp
wtemp_980 10.6 1.00000 wtemp
wtemp_981 11.8 1.00000 wtemp
wtemp_982 11.8 1.00000 wtemp
wtemp_983 11.8 1.00000 wtemp
wtemp_984 11.8 1.00000 wtemp
wtemp_985 11.8 1.00000 wtemp
wtemp_986 11.8 1.00000 wtemp
wtemp_987 11.6 1.00000 wtemp
wtemp_988 11.6 1.00000 wtemp
wtemp_989 11.5 1.00000 wtemp
wtemp_990 11.5 1.00000 wtemp
wtemp_991 11.5 1.00000 wtemp
wtemp_992 11.5 1.00000 wtemp
wtemp_993 11.8 1.00000 wtemp
wtemp_994 8 1.00000 wtemp
wtemp_995 7.5 1.00000 wtemp
wtemp_996 7.5 1.00000 wtemp
wtemp_997 7.5 1.00000 wtemp
wtemp_998 7.5 1.00000 wtemp
wtemp_999 7.5 1.00000 wtemp
wtemp_1000 7.5 1.00000 wtemp
wtemp_1001 7.5 1.00000 wtemp
wtemp_1002 7.5 1.00000 wtemp
wtemp_1003 7.5 1.00000 wtemp
wtemp_1004 7.5 1.00000 wtemp
wtemp_1005 7.5 1.00000 wtemp
wtemp_1006 7.5 1.00000 wtemp
wtemp_1007 1 1.00000 wtemp
wtemp_1008 1.3 1.00000 wtemp
wtemp_1009 1.3 1.00000 wtemp
wtemp_1010 1.3 1.00000 wtemp
wtemp_1011 1.5 1.00000 wtemp
wtemp_1012 1.7 1.00000 wtemp
wtemp_1013 1.8 1.00000 wtemp
wtemp_1014 1.9 1.00000 wtemp
wtemp_1015 2.1 1.00000 wtemp
wtemp_1016 2.4 1.00000 wtemp
wtemp_1017 5.5 1.00000 wtemp
wtemp_1018 5.5 1.00000 wtemp
wtemp_1019 9.6 1.00000 wtemp
wtemp_1020 9.1 1.00000 wtemp
wtemp_1021 7.9 1.00000 wtemp
wtemp_1022 6.7 1.00000 wtemp
wtemp_1023 6.3 1.00000 wtemp
wtemp_1024 6.2 1.00000 wtemp
wtemp_1025 6.1 1.00000 wtemp
wtemp_1026 6 1.00000 wtemp
wtemp_1027 5.7 1.00000 wtemp
wtemp_1028 5.5 1.00000 wtemp
wtemp_1029 5.3 1.00000 wtemp
wtemp_1030 17.3 1.00000 wtemp
wtemp_1031 17.1 1.00000 wtemp
wtemp_1032 16.4 1.00000 wtemp
wtemp_1033 14.9 1.00000 wtemp
wtemp_1034 14.3 1.00000 wtemp
wtemp_1035 13.9 1.00000 wtemp
wtemp_1036 13.8 1.00000 wtemp
wtemp_1037 13.1 1.00000 wtemp
wtemp_1038 13 1.00000 wtemp
wtemp_1039 12.8 1.00000 wtemp
wtemp_1040 11.8 1.00000 wtemp
wtemp_1041 10.8 1.00000 wtemp
wtemp_1042 10.6 1.00000 wtemp
wtemp_1043 10.2 1.00000 wtemp
wtemp_1044 8.7 1.00000 wtemp
wtemp_1045 8.6 1.00000 wtemp
wtemp_1046 8.5 1.00000 wtemp
wtemp_1047 7.9 1.00000 wtemp
wtemp_1048 7.8 1.00000 wtemp
wtemp_1049 7.7 1.00000 wtemp